<?xml version='1.0' encoding='utf-8'?>
<net xmlns:xsi="http://www.w3.org/2001/XMLSchema-instance" version="1.16" junctionCornerDetail="5" limitTurnSpeed="5.50" xsi:noNamespaceSchemaLocation="http://sumo.dlr.de/xsd/net_file.xsd">
	<location netOffset="-766867.49,-1618705.89" convBoundary="0.00,0.00,2159.65,2696.16" origBoundary="-90.522423,14.628451,-90.502452,14.652881" projParameter="+proj=utm +zone=15 +ellps=WGS84 +datum=WGS84 +units=m +no_defs" />
	<type id="highway.footway" priority="1" numLanes="1" speed="2.78" allow="pedestrian" oneway="1" width="2.00" />
	<type id="highway.pedestrian" priority="1" numLanes="1" speed="2.78" allow="pedestrian" oneway="1" width="2.00" />
	<type id="highway.primary" priority="12" numLanes="2" speed="27.78" disallow="tram rail_urban rail rail_electric rail_fast ship" oneway="0" />
	<type id="highway.residential" priority="3" numLanes="1" speed="13.89" disallow="tram rail_urban rail rail_electric rail_fast ship" oneway="0" />
	<type id="highway.secondary" priority="11" numLanes="1" speed="27.78" disallow="tram rail_urban rail rail_electric rail_fast ship" oneway="0" />
	<type id="highway.service" priority="1" numLanes="1" speed="5.56" allow="pedestrian delivery bicycle" oneway="0" />
	<type id="highway.steps" priority="1" numLanes="1" speed="1.39" allow="pedestrian" oneway="1" width="2.00" />
	<type id="highway.tertiary" priority="10" numLanes="1" speed="22.22" disallow="tram rail_urban rail rail_electric rail_fast ship" oneway="0" />
	<edge id=":10032690014_0" function="internal">
		<lane id=":10032690014_0_0" index="0" allow="pedestrian delivery bicycle" speed="5.07" length="5.03" shape="1502.93,1137.86 1501.59,1138.23 1500.69,1138.93 1500.21,1139.96 1500.17,1141.32" />
	</edge>
	<edge id=":10032690014_1" function="internal">
		<lane id=":10032690014_1_0" index="0" allow="pedestrian delivery bicycle" speed="3.65" length="4.67" shape="1502.93,1137.86 1501.64,1137.22 1501.14,1136.48 1501.44,1135.64 1502.53,1134.69" />
	</edge>
	<edge id=":10032690014_2" function="internal">
		<lane id=":10032690014_2_0" index="0" allow="pedestrian delivery bicycle" speed="5.04" length="5.01" shape="1499.07,1132.00 1499.42,1133.32 1500.12,1134.21 1501.15,1134.67 1502.53,1134.69" />
	</edge>
	<edge id=":10032690014_3" function="internal">
		<lane id=":10032690014_3_0" index="0" disallow="tram rail_urban rail rail_electric rail_fast ship" speed="27.78" length="9.39" shape="1499.07,1132.00 1500.17,1141.32" />
	</edge>
	<edge id=":10032690015_0" function="internal">
		<lane id=":10032690015_0_0" index="0" allow="pedestrian delivery bicycle" speed="5.56" length="0.31" shape="1505.70,1137.51 1505.39,1137.55" />
	</edge>
	<edge id=":10032690015_1" function="internal">
		<lane id=":10032690015_1_0" index="0" allow="pedestrian delivery bicycle" speed="5.56" length="0.27" shape="1504.99,1134.38 1505.26,1134.34" />
	</edge>
	<edge id=":10032718217_0" function="internal">
		<lane id=":10032718217_0_0" index="0" allow="pedestrian delivery bicycle" speed="3.65" length="4.67" shape="1523.08,1122.59 1523.70,1121.29 1524.44,1120.78 1525.29,1121.06 1526.25,1122.14" />
	</edge>
	<edge id=":10032718255_0" function="internal">
		<lane id=":10032718255_0_0" index="0" allow="pedestrian delivery bicycle" speed="5.05" length="4.99" shape="1627.04,1204.11 1626.67,1202.78 1625.97,1201.89 1624.95,1201.43 1623.59,1201.40" />
	</edge>
	<edge id=":10032718255_1" function="internal">
		<lane id=":10032718255_1_0" index="0" allow="pedestrian delivery bicycle" speed="5.56" length="9.09" shape="1627.04,1204.11 1626.99,1201.33 1627.65,1199.26 1629.03,1197.90 1631.13,1197.24" />
	</edge>
	<edge id=":10032718255_2" function="internal">
		<lane id=":10032718255_2_0" index="0" allow="pedestrian delivery bicycle" speed="3.65" length="4.67" shape="1627.04,1204.11 1627.69,1202.82 1628.44,1202.33 1629.28,1202.63 1630.22,1203.73" />
	</edge>
	<edge id=":10032718255_3" function="internal">
		<lane id=":10032718255_3_0" index="0" allow="pedestrian delivery bicycle" speed="4.89" length="4.66" shape="1632.45,1200.30 1631.32,1200.64 1630.57,1201.32 1630.20,1202.35 1630.22,1203.73" />
	</edge>
	<edge id=":10032718255_4" function="internal">
		<lane id=":10032718255_4_0" index="0" allow="pedestrian delivery bicycle" speed="5.56" length="8.93" shape="1632.45,1200.30 1623.59,1201.40" />
	</edge>
	<edge id=":10032718255_5" function="internal">
		<lane id=":10032718255_5_0" index="0" allow="pedestrian delivery bicycle" speed="3.70" length="4.87" shape="1632.45,1200.30 1630.98,1200.03 1630.26,1199.43 1630.32,1198.50 1631.13,1197.24" />
	</edge>
	<edge id=":10032718255_6" function="internal">
		<lane id=":10032718255_6_0" index="0" allow="pedestrian delivery bicycle" speed="5.56" length="8.00" shape="1623.20,1198.23 1631.13,1197.24" />
	</edge>
	<edge id=":10032718255_7" function="internal">
		<lane id=":10032718255_7_0" index="0" allow="pedestrian delivery bicycle" speed="5.56" length="10.15" shape="1623.20,1198.23 1625.96,1198.28 1628.05,1199.22 1629.47,1201.03 1630.22,1203.73" />
	</edge>
	<edge id=":10032718255_8" function="internal">
		<lane id=":10032718255_8_0" index="0" allow="pedestrian delivery bicycle" speed="3.65" length="4.67" shape="1623.20,1198.23 1624.49,1198.87 1624.98,1199.62 1624.68,1200.46 1623.59,1201.40" />
	</edge>
	<edge id=":10032718256_0" function="internal">
		<lane id=":10032718256_0_0" index="0" allow="pedestrian delivery bicycle" speed="5.02" length="5.02" shape="1642.65,1188.29 1642.31,1186.95 1641.62,1186.06 1640.58,1185.60 1639.21,1185.58" />
	</edge>
	<edge id=":10032718256_1" function="internal">
		<lane id=":10032718256_1_0" index="0" disallow="tram rail_urban rail rail_electric rail_fast ship" speed="22.22" length="9.41" shape="1642.65,1188.29 1641.58,1178.94" />
		<lane id=":10032718256_1_1" index="1" disallow="tram rail_urban rail rail_electric rail_fast ship" speed="22.22" length="9.41" shape="1645.83,1187.93 1644.76,1178.57" />
	</edge>
	<edge id=":10032718256_3" function="internal">
		<lane id=":10032718256_3_0" index="0" allow="pedestrian delivery bicycle" speed="5.08" length="5.05" shape="1638.80,1182.40 1640.15,1182.04 1641.07,1181.34 1641.54,1180.31 1641.58,1178.94" />
	</edge>
	<edge id=":10032718256_4" function="internal">
		<lane id=":10032718256_4_0" index="0" allow="pedestrian delivery bicycle" speed="3.65" length="4.67" shape="1638.80,1182.40 1640.09,1183.05 1640.59,1183.79 1640.29,1184.63 1639.21,1185.58" />
	</edge>
	<edge id=":10032718257_0" function="internal">
		<lane id=":10032718257_0_0" index="0" allow="pedestrian delivery bicycle" speed="5.56" length="9.41" shape="1630.60,1189.71 1629.57,1180.36" />
	</edge>
	<edge id=":10032718257_1" function="internal">
		<lane id=":10032718257_1_0" index="0" allow="pedestrian delivery bicycle" speed="5.56" length="10.17" shape="1630.60,1189.71 1630.69,1186.94 1631.65,1184.86 1633.49,1183.46 1636.19,1182.73" />
	</edge>
	<edge id=":10032718257_2" function="internal">
		<lane id=":10032718257_2_0" index="0" allow="pedestrian delivery bicycle" speed="3.65" length="4.67" shape="1630.60,1189.71 1631.26,1188.43 1632.01,1187.94 1632.85,1188.25 1633.78,1189.36" />
	</edge>
	<edge id=":10032718257_3" function="internal">
		<lane id=":10032718257_3_0" index="0" allow="pedestrian delivery bicycle" speed="5.08" length="5.05" shape="1636.58,1185.91 1635.23,1186.27 1634.31,1186.96 1633.83,1187.99 1633.78,1189.36" />
	</edge>
	<edge id=":10032718257_4" function="internal">
		<lane id=":10032718257_4_0" index="0" allow="pedestrian delivery bicycle" speed="5.56" length="10.22" shape="1636.58,1185.91 1633.77,1185.85 1631.67,1184.91 1630.27,1183.07 1629.57,1180.36" />
	</edge>
	<edge id=":10032718257_5" function="internal">
		<lane id=":10032718257_5_0" index="0" allow="pedestrian delivery bicycle" speed="3.65" length="4.67" shape="1636.58,1185.91 1635.29,1185.26 1634.79,1184.52 1635.09,1183.67 1636.19,1182.73" />
	</edge>
	<edge id=":10032718257_6" function="internal">
		<lane id=":10032718257_6_0" index="0" allow="pedestrian delivery bicycle" speed="5.03" length="5.01" shape="1632.75,1180.01 1633.10,1181.34 1633.78,1182.24 1634.81,1182.71 1636.19,1182.73" />
	</edge>
	<edge id=":10032718257_7" function="internal">
		<lane id=":10032718257_7_0" index="0" allow="pedestrian delivery bicycle" speed="5.56" length="9.40" shape="1632.75,1180.01 1633.78,1189.36" />
	</edge>
	<edge id=":10032718257_8" function="internal">
		<lane id=":10032718257_8_0" index="0" allow="pedestrian delivery bicycle" speed="3.65" length="4.67" shape="1632.75,1180.01 1632.09,1181.29 1631.34,1181.77 1630.50,1181.46 1629.57,1180.36" />
	</edge>
	<edge id=":10032718258_0" function="internal">
		<lane id=":10032718258_0_0" index="0" allow="pedestrian delivery bicycle" speed="3.65" length="4.67" shape="1629.44,1179.14 1630.11,1177.86 1630.86,1177.38 1631.70,1177.69 1632.62,1178.79" />
	</edge>
	<edge id=":10032718260_0" function="internal">
		<lane id=":10032718260_0_0" index="0" allow="pedestrian delivery bicycle" speed="3.65" length="4.67" shape="1617.98,1202.10 1616.69,1201.45 1616.20,1200.70 1616.49,1199.86 1617.59,1198.92" />
	</edge>
	<edge id=":10032718261_0" function="internal">
		<lane id=":10032718261_0_0" index="0" allow="pedestrian delivery bicycle" speed="5.02" length="5.02" shape="1606.14,1208.55 1606.51,1209.88 1607.21,1210.76 1608.26,1211.20 1609.64,1211.19" />
	</edge>
	<edge id=":10032718261_1" function="internal">
		<lane id=":10032718261_1_0" index="0" allow="pedestrian delivery bicycle" speed="3.65" length="4.67" shape="1606.14,1208.55 1605.50,1209.84 1604.76,1210.34 1603.91,1210.04 1602.97,1208.95" />
	</edge>
	<edge id=":10032718261_2" function="internal">
		<lane id=":10032718261_2_0" index="0" allow="pedestrian delivery bicycle" speed="5.11" length="5.08" shape="1600.34,1212.58 1601.64,1212.18 1602.51,1211.44 1602.96,1210.37 1602.97,1208.95" />
	</edge>
	<edge id=":10032718261_3" function="internal">
		<lane id=":10032718261_3_0" index="0" disallow="tram rail_urban rail rail_electric rail_fast ship" speed="27.78" length="9.40" shape="1600.34,1212.58 1609.64,1211.19" />
		<lane id=":10032718261_3_1" index="1" disallow="tram rail_urban rail rail_electric rail_fast ship" speed="27.78" length="9.40" shape="1600.81,1215.74 1610.11,1214.36" />
	</edge>
	<edge id=":10032718262_0" function="internal">
		<lane id=":10032718262_0_0" index="0" allow="pedestrian delivery bicycle" speed="5.56" length="0.31" shape="1602.80,1207.60 1602.76,1207.29" />
	</edge>
	<edge id=":10032718262_1" function="internal">
		<lane id=":10032718262_1_0" index="0" allow="pedestrian delivery bicycle" speed="5.56" length="0.27" shape="1605.94,1206.93 1605.97,1207.20" />
	</edge>
	<edge id=":10032718264_0" function="internal">
		<lane id=":10032718264_0_0" index="0" allow="pedestrian delivery bicycle" speed="3.65" length="4.67" shape="1582.63,1155.27 1581.35,1154.61 1580.86,1153.86 1581.17,1153.02 1582.27,1152.09" />
	</edge>
	<edge id=":10032718265_0" function="internal">
		<lane id=":10032718265_0_0" index="0" allow="pedestrian delivery bicycle" speed="5.04" length="5.00" shape="1583.87,1067.38 1583.52,1066.05 1582.82,1065.16 1581.79,1064.71 1580.42,1064.68" />
	</edge>
	<edge id=":10032718265_1" function="internal">
		<lane id=":10032718265_1_0" index="0" allow="pedestrian delivery bicycle" speed="3.65" length="4.67" shape="1583.87,1067.38 1584.52,1066.09 1585.27,1065.59 1586.11,1065.89 1587.05,1066.99" />
	</edge>
	<edge id=":10032718265_2" function="internal">
		<lane id=":10032718265_2_0" index="0" allow="pedestrian delivery bicycle" speed="5.08" length="5.03" shape="1589.71,1063.45 1588.40,1063.83 1587.52,1064.55 1587.07,1065.60 1587.05,1066.99" />
	</edge>
	<edge id=":10032718265_3" function="internal">
		<lane id=":10032718265_3_0" index="0" disallow="tram rail_urban rail rail_electric rail_fast ship" speed="13.89" length="9.37" shape="1589.71,1063.45 1580.42,1064.68" />
	</edge>
	<edge id=":10032718266_0" function="internal">
		<lane id=":10032718266_0_0" index="0" allow="pedestrian delivery bicycle" speed="5.56" length="0.28" shape="1584.00,1068.45 1583.97,1068.17" />
	</edge>
	<edge id=":10032718266_1" function="internal">
		<lane id=":10032718266_1_0" index="0" allow="pedestrian delivery bicycle" speed="5.56" length="0.31" shape="1587.15,1067.78 1587.18,1068.09" />
	</edge>
	<edge id=":10032718267_0" function="internal">
		<lane id=":10032718267_0_0" index="0" allow="pedestrian delivery bicycle" speed="3.65" length="4.67" shape="1593.12,1117.59 1592.47,1118.88 1591.72,1119.37 1590.88,1119.07 1589.94,1117.98" />
	</edge>
	<edge id=":10032718268_0" function="internal">
		<lane id=":10032718268_0_0" index="0" allow="pedestrian delivery bicycle" speed="5.56" length="0.31" shape="1585.42,1080.82 1585.39,1080.52" />
	</edge>
	<edge id=":10032718268_1" function="internal">
		<lane id=":10032718268_1_0" index="0" allow="pedestrian delivery bicycle" speed="5.56" length="0.29" shape="1588.57,1080.15 1588.60,1080.44" />
	</edge>
	<edge id=":10032751965_0" function="internal">
		<lane id=":10032751965_0_0" index="0" allow="pedestrian delivery bicycle" speed="3.65" length="4.67" shape="1473.52,1304.30 1474.82,1304.93 1475.33,1305.66 1475.04,1306.51 1473.96,1307.47" />
	</edge>
	<edge id=":10032751967_0" function="internal">
		<lane id=":10032751967_0_0" index="0" allow="pedestrian delivery bicycle" speed="5.56" length="0.30" shape="1463.71,1312.42 1463.67,1312.13" />
	</edge>
	<edge id=":10032751967_1" function="internal">
		<lane id=":10032751967_1_0" index="0" allow="pedestrian delivery bicycle" speed="5.56" length="0.30" shape="1466.84,1311.67 1466.88,1311.97" />
	</edge>
	<edge id=":10032751968_0" function="internal">
		<lane id=":10032751968_0_0" index="0" allow="pedestrian delivery bicycle" speed="5.56" length="0.10" shape="1466.08,1329.01 1466.08,1329.01" />
	</edge>
	<edge id=":10032751968_1" function="internal">
		<lane id=":10032751968_1_0" index="0" allow="pedestrian delivery bicycle" speed="5.56" length="0.10" shape="1469.25,1328.55 1469.25,1328.55" />
	</edge>
	<edge id=":10032751969_0" function="internal">
		<lane id=":10032751969_0_0" index="0" disallow="tram rail_urban rail rail_electric rail_fast ship" speed="27.78" length="9.40" shape="1473.33,1335.17 1464.03,1336.52" />
	</edge>
	<edge id=":10032751969_1" function="internal">
		<lane id=":10032751969_1_0" index="0" allow="pedestrian delivery bicycle" speed="6.08" length="7.76" shape="1473.33,1335.17 1470.58,1335.37 1468.55,1335.08 1467.24,1334.29 1466.66,1332.99" />
	</edge>
	<edge id=":10032751969_2" function="internal">
		<lane id=":10032751969_2_0" index="0" allow="pedestrian delivery bicycle" speed="6.09" length="7.76" shape="1469.82,1332.54 1469.63,1333.94 1468.60,1335.07 1466.73,1335.93 1464.03,1336.52" />
	</edge>
	<edge id=":10032751969_3" function="internal">
		<lane id=":10032751969_3_0" index="0" allow="pedestrian delivery bicycle" speed="3.65" length="4.67" shape="1469.82,1332.54 1469.20,1333.84 1468.47,1334.35 1467.62,1334.07 1466.66,1332.99" />
	</edge>
	<edge id=":10032751972_0" function="internal">
		<lane id=":10032751972_0_0" index="0" allow="pedestrian delivery bicycle" speed="3.65" length="4.67" shape="1423.38,1295.83 1422.07,1295.22 1421.55,1294.49 1421.83,1293.64 1422.89,1292.67" />
	</edge>
	<edge id=":10032751974_0" function="internal">
		<lane id=":10032751974_0_0" index="0" allow="pedestrian delivery bicycle" speed="4.82" length="4.57" shape="1440.85,1242.66 1440.84,1241.53 1441.28,1240.66 1442.17,1240.03 1443.49,1239.67" />
	</edge>
	<edge id=":10032751974_1" function="internal">
		<lane id=":10032751974_1_0" index="0" disallow="tram rail_urban rail rail_electric rail_fast ship" speed="27.78" length="6.22" shape="1436.85,1237.48 1443.00,1236.50" />
		<lane id=":10032751974_1_1" index="1" disallow="tram rail_urban rail rail_electric rail_fast ship" speed="27.78" length="6.22" shape="1437.36,1240.64 1443.49,1239.67" />
	</edge>
	<edge id=":10032751975_0" function="internal">
		<lane id=":10032751975_0_0" index="0" allow="pedestrian delivery bicycle" speed="5.56" length="2.86" shape="1439.69,1245.45 1440.88,1242.86" />
	</edge>
	<edge id=":10032751975_1" function="internal">
		<lane id=":10032751975_1_0" index="0" allow="pedestrian delivery bicycle" speed="3.65" length="4.67" shape="1439.69,1245.45 1440.30,1244.15 1441.02,1243.63 1441.88,1243.90 1442.85,1244.96" />
	</edge>
	<edge id=":10032751977_0" function="internal">
		<lane id=":10032751977_0_0" index="0" allow="pedestrian delivery bicycle" speed="5.56" length="9.40" shape="1431.03,1285.66 1429.59,1276.37" />
	</edge>
	<edge id=":10032751977_1" function="internal">
		<lane id=":10032751977_1_0" index="0" allow="pedestrian delivery bicycle" speed="5.56" length="10.17" shape="1431.03,1285.66 1431.00,1282.87 1431.87,1280.74 1433.63,1279.27 1436.30,1278.47" />
	</edge>
	<edge id=":10032751977_2" function="internal">
		<lane id=":10032751977_2_0" index="0" allow="pedestrian delivery bicycle" speed="3.65" length="4.67" shape="1431.03,1285.66 1431.64,1284.35 1432.37,1283.83 1433.22,1284.10 1434.20,1285.17" />
	</edge>
	<edge id=":10032751977_3" function="internal">
		<lane id=":10032751977_3_0" index="0" allow="pedestrian delivery bicycle" speed="5.04" length="5.00" shape="1436.79,1281.63 1435.48,1282.03 1434.61,1282.75 1434.18,1283.80 1434.20,1285.17" />
	</edge>
	<edge id=":10032751977_4" function="internal">
		<lane id=":10032751977_4_0" index="0" allow="pedestrian delivery bicycle" speed="5.56" length="10.16" shape="1436.79,1281.63 1434.00,1281.66 1431.87,1280.79 1430.40,1279.03 1429.59,1276.37" />
	</edge>
	<edge id=":10032751977_5" function="internal">
		<lane id=":10032751977_5_0" index="0" allow="pedestrian delivery bicycle" speed="3.65" length="4.67" shape="1436.79,1281.63 1435.48,1281.02 1434.96,1280.29 1435.24,1279.44 1436.30,1278.47" />
	</edge>
	<edge id=":10032751977_6" function="internal">
		<lane id=":10032751977_6_0" index="0" allow="pedestrian delivery bicycle" speed="5.05" length="5.01" shape="1432.76,1275.88 1433.15,1277.19 1433.88,1278.06 1434.93,1278.48 1436.30,1278.47" />
	</edge>
	<edge id=":10032751977_7" function="internal">
		<lane id=":10032751977_7_0" index="0" allow="pedestrian delivery bicycle" speed="5.56" length="9.40" shape="1432.76,1275.88 1434.20,1285.17" />
	</edge>
	<edge id=":10032751977_8" function="internal">
		<lane id=":10032751977_8_0" index="0" allow="pedestrian delivery bicycle" speed="3.65" length="4.67" shape="1432.76,1275.88 1432.15,1277.19 1431.42,1277.70 1430.57,1277.43 1429.59,1276.37" />
	</edge>
	<edge id=":10032751978_0" function="internal">
		<lane id=":10032751978_0_0" index="0" allow="pedestrian delivery bicycle" speed="3.65" length="4.67" shape="1425.15,1247.71 1425.75,1246.40 1426.48,1245.88 1427.33,1246.15 1428.31,1247.22" />
	</edge>
	<edge id=":10032751978_1" function="internal">
		<lane id=":10032751978_1_0" index="0" allow="pedestrian delivery bicycle" speed="5.56" length="2.86" shape="1426.35,1245.13 1428.31,1247.22" />
	</edge>
	<edge id=":10032751979_0" function="internal">
		<lane id=":10032751979_0_0" index="0" disallow="tram rail_urban rail rail_electric rail_fast ship" speed="27.78" length="6.20" shape="1422.35,1239.82 1428.47,1238.83" />
		<lane id=":10032751979_0_1" index="1" disallow="tram rail_urban rail rail_electric rail_fast ship" speed="27.78" length="6.20" shape="1422.86,1242.97 1428.98,1241.99" />
	</edge>
	<edge id=":10032751979_2" function="internal">
		<lane id=":10032751979_2_0" index="0" allow="pedestrian delivery bicycle" speed="4.85" length="4.51" shape="1422.86,1242.97 1424.22,1242.91 1425.25,1243.22 1425.95,1243.89 1426.32,1244.93" />
	</edge>
	<edge id=":10032751980_0" function="internal">
		<lane id=":10032751980_0_0" index="0" allow="pedestrian delivery bicycle" speed="6.13" length="7.79" shape="1412.31,1247.85 1412.51,1246.43 1413.53,1245.27 1415.38,1244.38 1418.07,1243.75" />
	</edge>
	<edge id=":10032751980_1" function="internal">
		<lane id=":10032751980_1_0" index="0" allow="pedestrian delivery bicycle" speed="3.65" length="4.67" shape="1412.31,1247.85 1412.94,1246.55 1413.67,1246.04 1414.52,1246.32 1415.48,1247.40" />
	</edge>
	<edge id=":10032751980_2" function="internal">
		<lane id=":10032751980_2_0" index="0" disallow="tram rail_urban rail rail_electric rail_fast ship" speed="27.78" length="9.40" shape="1408.27,1242.09 1417.56,1240.59" />
		<lane id=":10032751980_2_1" index="1" disallow="tram rail_urban rail rail_electric rail_fast ship" speed="27.78" length="9.40" shape="1408.78,1245.25 1418.07,1243.75" />
	</edge>
	<edge id=":10032751980_4" function="internal">
		<lane id=":10032751980_4_0" index="0" allow="pedestrian delivery bicycle" speed="6.06" length="7.81" shape="1408.78,1245.25 1411.55,1245.00 1413.58,1245.28 1414.90,1246.08 1415.48,1247.40" />
	</edge>
	<edge id=":10032751981_0" function="internal">
		<lane id=":10032751981_0_0" index="0" allow="pedestrian delivery bicycle" speed="5.56" length="0.30" shape="1412.38,1248.31 1412.34,1248.00" />
	</edge>
	<edge id=":10032751981_1" function="internal">
		<lane id=":10032751981_1_0" index="0" allow="pedestrian delivery bicycle" speed="5.56" length="0.29" shape="1415.50,1247.56 1415.55,1247.85" />
	</edge>
	<edge id=":10032751984_0" function="internal">
		<lane id=":10032751984_0_0" index="0" allow="pedestrian delivery bicycle" speed="3.65" length="4.67" shape="1391.02,1268.86 1391.63,1267.56 1392.37,1267.04 1393.22,1267.33 1394.18,1268.40" />
	</edge>
	<edge id=":10032884923_0" function="internal">
		<lane id=":10032884923_0_0" index="0" disallow="tram rail_urban rail rail_electric rail_fast ship" speed="27.78" length="9.40" shape="1491.61,1332.50 1482.30,1333.86" />
	</edge>
	<edge id=":10032884923_1" function="internal">
		<lane id=":10032884923_1_0" index="0" allow="pedestrian delivery bicycle" speed="6.10" length="7.77" shape="1491.61,1332.50 1488.85,1332.71 1486.82,1332.41 1485.51,1331.62 1484.91,1330.33" />
	</edge>
	<edge id=":10032884923_2" function="internal">
		<lane id=":10032884923_2_0" index="0" allow="pedestrian delivery bicycle" speed="6.07" length="7.78" shape="1488.07,1329.84 1487.89,1331.26 1486.87,1332.40 1485.01,1333.27 1482.30,1333.86" />
	</edge>
	<edge id=":10032884923_3" function="internal">
		<lane id=":10032884923_3_0" index="0" allow="pedestrian delivery bicycle" speed="3.65" length="4.67" shape="1488.07,1329.84 1487.47,1331.15 1486.74,1331.67 1485.88,1331.40 1484.91,1330.33" />
	</edge>
	<edge id=":10032884924_0" function="internal">
		<lane id=":10032884924_0_0" index="0" allow="pedestrian delivery bicycle" speed="5.56" length="0.10" shape="1484.30,1326.37 1484.30,1326.37" />
	</edge>
	<edge id=":10032884924_1" function="internal">
		<lane id=":10032884924_1_0" index="0" allow="pedestrian delivery bicycle" speed="5.56" length="0.10" shape="1487.46,1325.88 1487.46,1325.88" />
	</edge>
	<edge id=":10032884925_0" function="internal">
		<lane id=":10032884925_0_0" index="0" allow="pedestrian delivery bicycle" speed="5.56" length="0.30" shape="1482.79,1316.59 1482.75,1316.29" />
	</edge>
	<edge id=":10032884925_1" function="internal">
		<lane id=":10032884925_1_0" index="0" allow="pedestrian delivery bicycle" speed="5.56" length="0.30" shape="1485.91,1315.81 1485.96,1316.10" />
	</edge>
	<edge id=":10032884926_0" function="internal">
		<lane id=":10032884926_0_0" index="0" allow="pedestrian delivery bicycle" speed="3.65" length="4.67" shape="1480.09,1298.87 1480.70,1297.56 1481.43,1297.04 1482.28,1297.32 1483.25,1298.38" />
	</edge>
	<edge id=":10032884927_0" function="internal">
		<lane id=":10032884927_0_0" index="0" allow="pedestrian delivery bicycle" speed="5.56" length="0.30" shape="1513.14,1300.74 1512.85,1300.77" />
	</edge>
	<edge id=":10032884927_1" function="internal">
		<lane id=":10032884927_1_0" index="0" allow="pedestrian delivery bicycle" speed="5.56" length="0.30" shape="1512.46,1297.60 1512.76,1297.56" />
	</edge>
	<edge id=":10032884929_0" function="internal">
		<lane id=":10032884929_0_0" index="0" allow="pedestrian delivery bicycle" speed="3.65" length="4.67" shape="1503.91,1313.17 1503.26,1314.46 1502.51,1314.95 1501.67,1314.65 1500.73,1313.56" />
	</edge>
	<edge id=":10032884930_0" function="internal">
		<lane id=":10032884930_0_0" index="0" disallow="tram rail_urban rail rail_electric rail_fast ship" speed="27.78" length="9.40" shape="1517.71,1293.84 1518.84,1303.17" />
	</edge>
	<edge id=":10032884930_1" function="internal">
		<lane id=":10032884930_1_0" index="0" allow="pedestrian delivery bicycle" speed="6.08" length="7.76" shape="1517.71,1293.84 1517.85,1296.60 1517.51,1298.62 1516.69,1299.91 1515.39,1300.47" />
	</edge>
	<edge id=":10032884930_2" function="internal">
		<lane id=":10032884930_2_0" index="0" allow="pedestrian delivery bicycle" speed="6.08" length="7.76" shape="1515.00,1297.29 1516.40,1297.52 1517.50,1298.57 1518.31,1300.46 1518.84,1303.17" />
	</edge>
	<edge id=":10032884930_3" function="internal">
		<lane id=":10032884930_3_0" index="0" allow="pedestrian delivery bicycle" speed="3.65" length="4.67" shape="1515.00,1297.29 1516.29,1297.94 1516.78,1298.69 1516.48,1299.53 1515.39,1300.47" />
	</edge>
	<edge id=":10035160395_0" function="internal">
		<lane id=":10035160395_0_0" index="0" disallow="tram rail_urban rail rail_electric rail_fast ship" speed="22.22" length="9.41" shape="1660.89,1340.35 1659.86,1330.98" />
		<lane id=":10035160395_0_1" index="1" disallow="tram rail_urban rail rail_electric rail_fast ship" speed="22.22" length="9.41" shape="1664.07,1339.99 1663.04,1330.64" />
	</edge>
	<edge id=":10035160395_2" function="internal">
		<lane id=":10035160395_2_0" index="0" allow="pedestrian delivery bicycle" speed="6.07" length="7.78" shape="1664.07,1339.99 1663.96,1337.22 1664.33,1335.20 1665.17,1333.93 1666.50,1333.39" />
	</edge>
	<edge id=":10035160395_3" function="internal">
		<lane id=":10035160395_3_0" index="0" allow="pedestrian delivery bicycle" speed="6.10" length="7.77" shape="1666.83,1336.58 1665.42,1336.33 1664.33,1335.25 1663.53,1333.36 1663.04,1330.64" />
	</edge>
	<edge id=":10035160395_4" function="internal">
		<lane id=":10035160395_4_0" index="0" allow="pedestrian delivery bicycle" speed="3.65" length="4.67" shape="1666.83,1336.58 1665.55,1335.90 1665.07,1335.15 1665.39,1334.31 1666.50,1333.39" />
	</edge>
	<edge id=":10035160396_0" function="internal">
		<lane id=":10035160396_0_0" index="0" allow="pedestrian delivery bicycle" speed="5.56" length="0.31" shape="1669.58,1336.29 1669.27,1336.32" />
	</edge>
	<edge id=":10035160396_1" function="internal">
		<lane id=":10035160396_1_0" index="0" allow="pedestrian delivery bicycle" speed="5.56" length="0.27" shape="1668.94,1333.14 1669.21,1333.11" />
	</edge>
	<edge id=":10035160397_0" function="internal">
		<lane id=":10035160397_0_0" index="0" allow="pedestrian delivery bicycle" speed="5.56" length="0.10" shape="1675.47,1335.60 1675.47,1335.60" />
	</edge>
	<edge id=":10035160397_1" function="internal">
		<lane id=":10035160397_1_0" index="0" allow="pedestrian delivery bicycle" speed="5.56" length="0.10" shape="1675.10,1332.42 1675.10,1332.42" />
	</edge>
	<edge id=":10035160399_0" function="internal">
		<lane id=":10035160399_0_0" index="0" allow="pedestrian delivery bicycle" speed="5.56" length="0.10" shape="1707.47,1313.01 1707.47,1313.01" />
	</edge>
	<edge id=":10035160399_1" function="internal">
		<lane id=":10035160399_1_0" index="0" allow="pedestrian delivery bicycle" speed="5.56" length="0.10" shape="1710.65,1312.62 1710.65,1312.63" />
	</edge>
	<edge id=":10035160400_0" function="internal">
		<lane id=":10035160400_0_0" index="0" allow="pedestrian delivery bicycle" speed="5.56" length="0.10" shape="1706.72,1306.75 1706.71,1306.65" />
	</edge>
	<edge id=":10035160400_1" function="internal">
		<lane id=":10035160400_1_0" index="0" allow="pedestrian delivery bicycle" speed="5.56" length="0.13" shape="1709.88,1306.23 1709.90,1306.36" />
	</edge>
	<edge id=":10035160401_0" function="internal">
		<lane id=":10035160401_0_0" index="0" allow="pedestrian delivery bicycle" speed="4.95" length="4.85" shape="1706.69,1306.44 1706.35,1305.19 1705.67,1304.37 1704.64,1303.95 1703.26,1303.95" />
	</edge>
	<edge id=":10035160401_1" function="internal">
		<lane id=":10035160401_1_0" index="0" allow="pedestrian delivery bicycle" speed="3.65" length="4.67" shape="1706.69,1306.44 1707.33,1305.15 1708.07,1304.65 1708.91,1304.94 1709.86,1306.03" />
	</edge>
	<edge id=":10035160401_2" function="internal">
		<lane id=":10035160401_2_0" index="0" allow="pedestrian delivery bicycle" speed="5.02" length="4.87" shape="1712.58,1302.71 1711.27,1303.07 1710.38,1303.75 1709.91,1304.73 1709.86,1306.03" />
	</edge>
	<edge id=":10035160401_3" function="internal">
		<lane id=":10035160401_3_0" index="0" disallow="tram rail_urban rail rail_electric rail_fast ship" speed="27.78" length="9.40" shape="1712.58,1302.71 1703.26,1303.95" />
	</edge>
	<edge id=":10035201667_0" function="internal">
		<lane id=":10035201667_0_0" index="0" allow="pedestrian delivery bicycle" speed="5.01" length="5.03" shape="1381.72,1096.01 1381.36,1094.67 1380.65,1093.79 1379.61,1093.35 1378.22,1093.36" />
	</edge>
	<edge id=":10035201667_1" function="internal">
		<lane id=":10035201667_1_0" index="0" allow="pedestrian delivery bicycle" speed="3.65" length="4.67" shape="1381.72,1096.01 1382.37,1094.72 1383.11,1094.22 1383.95,1094.52 1384.90,1095.61" />
	</edge>
	<edge id=":10035201667_2" function="internal">
		<lane id=":10035201667_2_0" index="0" allow="pedestrian delivery bicycle" speed="5.13" length="5.11" shape="1387.52,1091.94 1386.22,1092.34 1385.35,1093.09 1384.91,1094.18 1384.90,1095.61" />
	</edge>
	<edge id=":10035201667_3" function="internal">
		<lane id=":10035201667_3_0" index="0" disallow="tram rail_urban rail rail_electric rail_fast ship" speed="13.89" length="9.40" shape="1387.52,1091.94 1378.22,1093.36" />
	</edge>
	<edge id=":10035201668_0" function="internal">