<?xml version="1.0" encoding="UTF-8"?>

<!-- generated on 2024-05-23 17:59:30 by Eclipse SUMO polyconvert Version 1.19.0
<configuration xmlns:xsi="http://www.w3.org/2001/XMLSchema-instance" xsi:noNamespaceSchemaLocation="http://sumo.dlr.de/xsd/polyconvertConfiguration.xsd">

    <input>
        <net-file value="test.net.xml"/>
        <osm-files value="map.osm"/>
        <type-file value="typemap.xml"/>
    </input>

    <output>
        <output-file value="map.poly.xml"/>
    </output>

    <report>
        <xml-validation value="never"/>
    </report>

</configuration>
-->



<additional >
    <!-- comment this section to make it work -->
    <!-- xmlns:xsi="http://www.w3.org/2001/XMLSchema-instance" xsi:noNamespaceSchemaLocation="http://sumo.dlr.de/xsd/additional_file.xsd" -->
    <location netOffset="-766867.49,-1618705.89" convBoundary="-0.00,-0.00,2159.65,2696.16" origBoundary="-90.522423,14.628451,-90.502452,14.652881" projParameter="+proj=utm +zone=15 +ellps=WGS84 +datum=WGS84 +units=m +no_defs"/>

    <poly id="1001238989" type="tourism" color="207,245,201" fill="1" layer="-2.00" shape="1113.057492,1428.589711 1123.258523,1427.207217 1132.227896,1426.087964 1131.970662,1423.992796 1130.363690,1411.321453 1130.056459,1408.871477 1128.060167,1393.372856 1127.602702,1389.880594 1117.607763,1391.143575 1108.378142,1392.403895 1108.855340,1396.062432 1112.364468,1422.991449 1112.612263,1424.964736 1112.789966,1426.450148 1113.057492,1428.589711"/>
    <poly id="1029867155" type="building" color="255,230,230" fill="1" layer="-1.00" shape="556.354126,1559.092602 588.294447,1554.848434 585.882188,1536.954113 553.952744,1541.187337 556.354126,1559.092602"/>
    <poly id="1058439801" type="unknown" color="51,128,255" fill="0" layer="-1.00" shape="1073.249564,1429.779923 1072.221703,1430.133966 1061.858978,1432.499987 1057.675173,1438.542873 1060.160534,1455.641016 1061.608102,1473.015601 1065.970498,1476.229694 1073.140150,1475.079590 1077.100300,1474.680254 1078.684654,1472.727087"/>
    <poly id="1058444699" type="building" color="255,230,230" fill="1" layer="-1.00" shape="698.083157,1454.767599 698.241878,1456.020313 699.105825,1462.749620 701.538335,1481.740172 718.127964,1479.652637 714.912037,1454.453973 714.321495,1453.262946 713.000010,1452.872055 698.083157,1454.767599"/>
    <poly id="1058444700" type="building" color="255,230,230" fill="1" layer="-1.00" shape="631.855720,1464.923807 637.698412,1498.288106 643.960174,1497.360408 653.492317,1496.025747 656.439499,1495.604168 651.889139,1462.342594 631.855720,1464.923807"/>
    <poly id="1058444701" type="building" color="255,230,230" fill="1" layer="-1.00" shape="651.889139,1462.342594 682.211323,1458.235771 684.070616,1471.507623 686.017243,1483.695517 687.515954,1495.446749 674.122373,1497.026890 664.320674,1498.369658 656.979966,1499.396226 656.439499,1495.604168 651.889139,1462.342594"/>
    <poly id="1058444702" type="building" color="255,230,230" fill="1" layer="-1.00" shape="682.211323,1458.235771 698.241878,1456.020313 699.105825,1462.749620 687.620055,1464.328537 688.539711,1470.892395 684.070616,1471.507623 682.211323,1458.235771"/>
    <poly id="1058444703" type="building" color="255,230,230" fill="1" layer="-1.00" shape="687.515954,1495.446749 690.484328,1495.058618 698.868376,1494.231701 718.330347,1491.666420 719.635981,1491.536822 718.127964,1479.652637 701.538335,1481.740172 686.017243,1483.695517 687.515954,1495.446749"/>
    <poly id="1058444704" type="building" color="255,230,230" fill="1" layer="-1.00" shape="618.831280,1500.671770 622.317811,1500.211818 634.266130,1498.715439 637.698412,1498.288106 631.855720,1464.923807 614.238006,1467.387600 617.055142,1487.677604 617.695136,1492.223549 618.831280,1500.671770"/>
    <poly id="1058444705" type="building" color="255,230,230" fill="1" layer="-1.00" shape="614.238006,1467.387600 606.856368,1468.214465 608.508405,1480.731235 610.742950,1480.423614 611.712265,1487.375480 613.396195,1487.150388 613.536035,1488.159341 617.055142,1487.677604 614.238006,1467.387600"/>
    <poly id="1058444706" type="building" color="255,230,230" fill="1" layer="-1.00" shape="606.856368,1468.214465 608.508405,1480.731235 609.135440,1485.476307 592.599844,1487.553435 590.704576,1472.642762 592.316871,1470.103137 606.856368,1468.214465"/>
    <poly id="1058444707" type="building" color="255,230,230" fill="1" layer="-1.00" shape="592.599844,1487.553435 593.602566,1495.391310 610.117694,1493.214324 609.135440,1485.476307 592.599844,1487.553435"/>
    <poly id="1058444708" type="building" color="255,230,230" fill="1" layer="-1.00" shape="618.831280,1500.671770 594.814523,1503.807148 593.602566,1495.391310 610.117694,1493.214324 617.695136,1492.223549 618.831280,1500.671770"/>
    <poly id="1058444709" type="building" color="255,230,230" fill="1" layer="-1.00" shape="622.317811,1500.211818 623.681420,1511.507666 596.318369,1515.093460 594.814523,1503.807148 618.831280,1500.671770 622.317811,1500.211818"/>
    <poly id="1058444710" type="building" color="255,230,230" fill="1" layer="-1.00" shape="596.318369,1515.093460 597.564431,1525.314173 599.863347,1526.999958 625.204987,1522.960257 623.681420,1511.507666 596.318369,1515.093460"/>
    <poly id="1058444711" type="building" color="255,230,230" fill="1" layer="-1.00" shape="625.204987,1522.960257 637.102564,1521.175491 634.266130,1498.715439 622.317811,1500.211818 623.681420,1511.507666 625.204987,1522.960257"/>
    <poly id="1058444712" type="building" color="255,230,230" fill="1" layer="-1.00" shape="637.102564,1521.175491 647.142687,1519.713552 643.960174,1497.360408 637.698412,1498.288106 634.266130,1498.715439 637.102564,1521.175491"/>
    <poly id="1058444713" type="building" color="255,230,230" fill="1" layer="-1.00" shape="647.142687,1519.713552 656.664044,1518.378775 653.492317,1496.025747 643.960174,1497.360408 647.142687,1519.713552"/>
    <poly id="1058444714" type="building" color="255,230,230" fill="1" layer="-1.00" shape="664.320674,1498.369658 666.962583,1516.941818 656.664044,1518.378775 653.492317,1496.025747 656.439499,1495.604168 656.979966,1499.396226 664.320674,1498.369658"/>
    <poly id="1058444715" type="building" color="255,230,230" fill="1" layer="-1.00" shape="666.962583,1516.941818 676.602979,1515.564072 674.122373,1497.026890 664.320674,1498.369658 666.962583,1516.941818"/>
    <poly id="1058444716" type="building" color="255,230,230" fill="1" layer="-1.00" shape="676.602979,1515.564072 692.915163,1513.218859 690.484328,1495.058618 687.515954,1495.446749 674.122373,1497.026890 676.602979,1515.564072"/>
    <poly id="1058444717" type="building" color="255,230,230" fill="1" layer="-1.00" shape="701.288914,1512.347548 720.750872,1509.782272 718.330347,1491.666420 698.868376,1494.231701 701.288914,1512.347548"/>
    <poly id="1058444718" type="amenity" color="237,199,199" fill="1" layer="-1.00" shape="761.339053,1584.832014 765.646165,1618.633431 747.232953,1620.911256 743.245558,1589.404961 743.617599,1587.914515 744.889347,1586.943184 761.339053,1584.832014"/>
    <poly id="1058444718#1" type="building" color="255,230,230" fill="1" layer="-1.00" shape="761.339053,1584.832014 765.646165,1618.633431 747.232953,1620.911256 743.245558,1589.404961 743.617599,1587.914515 744.889347,1586.943184 761.339053,1584.832014"/>
    <poly id="1058444719" type="building" color="255,230,230" fill="1" layer="-1.00" shape="765.646165,1618.633431 761.339053,1584.832014 783.001599,1582.102735 783.437578,1584.609467 787.427354,1615.894392 765.646165,1618.633431"/>
    <poly id="1058444720" type="building" color="255,230,230" fill="1" layer="-1.00" shape="830.940646,1634.538616 833.964086,1656.635450 831.882642,1659.690231 812.193359,1662.352542 808.790120,1637.539256 829.871997,1634.681878 830.940646,1634.538616"/>
    <poly id="1058683050" type="unknown" color="51,128,255" fill="1" layer="-1.00" shape="1539.196352,1308.740073 1590.205942,1301.474257 1641.215703,1294.197474 1635.988256,1257.927906 1630.750006,1221.658223 1579.740226,1228.923983 1528.719840,1236.178656 1533.958108,1272.459362 1539.196352,1308.740073"/>
    <poly id="1058683052" type="amenity" color="237,199,199" fill="1" layer="-1.00" shape="1579.195290,1252.985540 1588.432873,1251.991167 1590.163306,1266.158471 1600.878070,1270.018221 1598.969422,1276.949581 1590.650489,1273.802567 1586.570027,1274.355492 1582.489443,1274.919487 1574.152068,1280.307733 1570.268396,1274.729695 1580.751219,1267.339124 1579.195290,1252.985540"/>
    <poly id="1058683052#1" type="building" color="255,230,230" fill="1" layer="-1.00" shape="1579.195290,1252.985540 1588.432873,1251.991167 1590.163306,1266.158471 1600.878070,1270.018221 1598.969422,1276.949581 1590.650489,1273.802567 1586.570027,1274.355492 1582.489443,1274.919487 1574.152068,1280.307733 1570.268396,1274.729695 1580.751219,1267.339124 1579.195290,1252.985540"/>
    <poly id="1058683080" type="unknown" color="51,128,255" fill="1" layer="-1.00" shape="1628.809388,1218.758507 1631.249610,1218.375742 1632.695682,1219.199808 1633.808686,1220.905861 1644.783525,1298.111455 1643.869507,1299.872700 1641.988197,1301.379747 1641.397086,1298.284535 1543.809599,1312.665536 1544.179874,1315.260136 1540.305532,1315.693557 1537.640574,1313.970438 1535.893219,1311.139279 1525.492014,1236.630263 1526.347690,1234.292701 1528.183695,1232.984419 1628.809388,1218.758507"/>
    <poly id="1059447096" type="amenity" color="237,199,199" fill="1" layer="-1.00" shape="734.549770,1455.521773 735.762170,1463.893348 732.415734,1464.354822 736.687194,1494.535753 740.303545,1494.032958 741.606499,1502.992268 801.003842,1494.477376 799.619911,1485.041137 801.671124,1484.742593 800.999559,1480.129867 804.313785,1479.656979 802.880945,1469.766310 801.437326,1459.875522 798.155551,1460.337697 797.493912,1455.802575 795.356356,1456.111243 794.033560,1446.996722 734.549770,1455.521773"/>
    <poly id="1059447096#1" type="building" color="255,230,230" fill="1" layer="-1.00" shape="734.549770,1455.521773 735.762170,1463.893348 732.415734,1464.354822 736.687194,1494.535753 740.303545,1494.032958 741.606499,1502.992268 801.003842,1494.477376 799.619911,1485.041137 801.671124,1484.742593 800.999559,1480.129867 804.313785,1479.656979 802.880945,1469.766310 801.437326,1459.875522 798.155551,1460.337697 797.493912,1455.802575 795.356356,1456.111243 794.033560,1446.996722 734.549770,1455.521773"/>
    <poly id="1059447097" type="amenity" color="237,199,199" fill="1" layer="-1.00" shape="774.698503,1476.309840 779.902161,1475.547698 780.955827,1482.666563 775.752170,1483.428704 774.698503,1476.309840"/>
    <poly id="1059447097#1" type="building" color="255,230,230" fill="1" layer="-1.00" shape="774.698503,1476.309840 779.902161,1475.547698 780.955827,1482.666563 775.752170,1483.428704 774.698503,1476.309840"/>
    <poly id="1059447098" type="amenity" color="237,199,199" fill="1" layer="-1.00" shape="772.931733,1464.433880 778.135393,1463.671737 779.199716,1470.801789 773.996058,1471.563931 772.931733,1464.433880"/>
    <poly id="1059447098#1" type="building" color="255,230,230" fill="1" layer="-1.00" shape="772.931733,1464.433880 778.135393,1463.671737 779.199716,1470.801789 773.996058,1471.563931 772.931733,1464.433880"/>
    <poly id="1059447099" type="amenity" color="237,199,199" fill="1" layer="-1.00" shape="757.848005,1487.439131 763.807287,1486.574569 760.523865,1464.585616 754.629365,1465.439820 757.848005,1487.439131"/>
    <poly id="1059447099#1" type="building" color="255,230,230" fill="1" layer="-1.00" shape="757.848005,1487.439131 763.807287,1486.574569 760.523865,1464.585616 754.629365,1465.439820 757.848005,1487.439131"/>
    <poly id="1059447103" type="leisure" color="207,245,201" fill="1" layer="-2.00" shape="804.313785,1479.656979 800.999559,1480.129867 801.671124,1484.742593 799.619911,1485.041137 801.003842,1494.477376 802.461695,1494.227676 803.479378,1493.818158 804.295328,1493.129664 804.942119,1492.140408 805.411646,1490.606749 805.615383,1488.738057 805.275062,1486.354151 804.775541,1482.761805 804.313785,1479.656979"/>
    <poly id="1059447104" type="leisure" color="207,245,201" fill="1" layer="-2.00" shape="794.033560,1446.996722 795.356356,1456.111243 797.493912,1455.802575 798.155551,1460.337697 801.437326,1459.875522 801.039505,1456.837822 800.552459,1453.090625 800.172913,1450.352030 799.718959,1449.483546 799.104437,1448.513665 798.079041,1447.661053 796.727531,1447.059487 795.327691,1446.933425 794.033560,1446.996722"/>
    <poly id="1059447105" type="unknown" color="51,128,255" fill="0" layer="-1.00" shape="810.288280,1488.213652 807.995442,1485.974383 808.345417,1485.513259 811.294366,1486.896221"/>
    <poly id="1059447106" type="unknown" color="51,128,255" fill="0" layer="-1.00" shape="808.642781,1479.040236 806.980279,1479.276621 807.906066,1482.331184 810.636890,1480.999463"/>
    <poly id="1059447107" type="unknown" color="51,128,255" fill="0" layer="-1.00" shape="805.766446,1459.247709 804.093044,1459.495045 803.802632,1456.491734 805.784813,1456.590973"/>
    <poly id="1059447108" type="unknown" color="51,128,255" fill="0" layer="-1.00" shape="804.218788,1449.997873 802.851554,1452.794800 803.375515,1453.176947 805.323117,1451.515586"/>
    <poly id="1059447109" type="unknown" color="51,128,255" fill="0" layer="-1.00" shape="810.636890,1480.999463 808.782613,1480.049192"/>
    <poly id="1059447110" type="tourism" color="207,245,201" fill="0" layer="-2.00" shape="808.782613,1480.049192 808.642781,1479.040236 807.199165,1469.149448 805.766446,1459.247709 805.626493,1458.249822"/>
    <poly id="1059447111" type="unknown" color="51,128,255" fill="0" layer="-1.00" shape="805.626493,1458.249822 805.784813,1456.590973"/>
    <poly id="1059447121" type="unknown" color="51,128,255" fill="0" layer="-1.00" shape="794.033560,1446.996722 795.327691,1446.933425 796.727531,1447.059487 798.079041,1447.661053 799.104437,1448.513665 799.718959,1449.483546 800.172913,1450.352030 800.552459,1453.090625 801.039505,1456.837822 801.437326,1459.875522"/>
    <poly id="1059447122" type="unknown" color="51,128,255" fill="0" layer="-1.00" shape="804.313785,1479.656979 804.775541,1482.761805 805.275062,1486.354151 805.615383,1488.738057 805.411646,1490.606749 804.942119,1492.140408 804.295328,1493.129664 803.479378,1493.818158 802.461695,1494.227676 801.003842,1494.477376"/>
    <poly id="1059456470" type="building" color="255,230,230" fill="1" layer="-1.00" shape="700.900774,1690.247282 702.176580,1699.715538 711.567335,1698.490068 715.868087,1730.907580 706.499019,1732.122214 707.684622,1740.969531 709.989367,1757.844214 728.252803,1755.454030 727.018180,1746.163351 731.573203,1745.571223 724.843778,1694.805273 723.559345,1694.968313 722.563212,1687.517965 700.900774,1690.247282"/>
    <poly id="1059456473" type="unknown" color="51,128,255" fill="0" layer="-1.00" shape="730.993465,1686.403742 722.563212,1687.517965"/>
    <poly id="1059456474" type="unknown" color="51,128,255" fill="0" layer="-1.00" shape="734.814555,1685.903198 738.355073,1685.432788 739.670381,1685.402933 740.681255,1685.613292 741.483841,1686.142412 741.961167,1686.845094 742.314722,1688.022453 742.891475,1692.434866"/>
    <poly id="1059456475" type="unknown" color="51,128,255" fill="0" layer="-1.00" shape="730.993465,1686.403742 732.914726,1686.159123 734.814555,1685.903198"/>
    <poly id="1059456476" type="building" color="255,230,230" fill="1" layer="-1.00" shape="676.903208,1745.702250 707.684622,1740.969531 706.499019,1732.122214 702.176580,1699.715538 700.900774,1690.247282 669.331107,1695.104222 676.903208,1745.702250"/>
    <poly id="1059456477" type="building" color="255,230,230" fill="1" layer="-1.00" shape="681.297185,1709.671467 684.558386,1733.686077 698.968906,1731.751789 695.718495,1707.737292 681.297185,1709.671467"/>
    <poly id="1059456477#1" type="leisure" color="207,245,201" fill="1" layer="-2.00" shape="681.297185,1709.671467 684.558386,1733.686077 698.968906,1731.751789 695.718495,1707.737292 681.297185,1709.671467"/>
    <poly id="1059456478" type="building" color="255,230,230" fill="1" layer="-1.00" shape="771.842702,1694.390905 770.202834,1679.792972 757.626952,1681.514868 756.762951,1681.671449 756.080221,1682.007147 755.547037,1682.466262 755.141236,1683.103904 754.927362,1683.931850 754.926725,1684.972477 756.183932,1696.134333 771.842702,1694.390905"/>
    <poly id="1059456479" type="building" color="255,230,230" fill="1" layer="-1.00" shape="770.202834,1679.792972 782.714056,1678.070372 783.555192,1684.910144 786.294867,1709.295462 773.679410,1710.695867 771.842702,1694.390905 770.202834,1679.792972"/>
    <poly id="1059456480" type="building" color="255,230,230" fill="1" layer="-1.00" shape="838.686379,1687.950577 836.693516,1671.145714 835.903166,1670.483878 814.926905,1673.541674 817.034201,1690.724188 838.686379,1687.950577"/>
    <poly id="1059456481" type="unknown" color="51,128,255" fill="0" layer="-1.00" shape="792.026618,1683.973522 791.480019,1679.760707 791.349023,1678.928977 791.097899,1678.239846 790.682565,1677.781396 790.082926,1677.420559 789.437749,1677.280634 788.575691,1677.260105"/>
    <poly id="1059456482" type="unknown" color="51,128,255" fill="0" layer="-1.00" shape="795.462744,1676.317172 793.185103,1676.624301 788.575691,1677.260105"/>
    <poly id="1059456484" type="unknown" color="51,128,255" fill="0" layer="-1.00" shape="788.575691,1677.260105 785.639424,1677.670714 782.714056,1678.070372"/>
    <poly id="1059456485" type="building" color="255,230,230" fill="1" layer="-1.00" shape="752.299040,1668.061032 754.770491,1669.737658 773.413269,1667.163458 771.135413,1650.787234 764.377804,1651.720524 751.683116,1653.463264 750.290544,1653.658329 752.299040,1668.061032"/>
    <poly id="1059456486" type="building" color="255,230,230" fill="1" layer="-1.00" shape="773.413269,1667.163458 789.681415,1664.895335 787.413619,1648.585642 771.135413,1650.787234 773.413269,1667.163458"/>
    <poly id="1059456487" type="building" color="255,230,230" fill="1" layer="-1.00" shape="789.681415,1664.895335 787.413619,1648.585642 803.519393,1646.382169 805.776402,1662.691747 789.681415,1664.895335"/>
    <poly id="1059456488" type="building" color="255,230,230" fill="1" layer="-1.00" shape="751.683116,1653.463264 749.000317,1632.731870 761.726012,1631.111243 764.377804,1651.720524 751.683116,1653.463264"/>
    <poly id="1059457434" type="building" color="255,230,230" fill="1" layer="-1.00" shape="718.616574,1602.175955 732.111957,1600.154141 730.372055,1588.776655 728.157792,1587.235701 716.616610,1588.957904 718.616574,1602.175955"/>
    <poly id="1059738280" type="unknown" color="51,128,255" fill="0" layer="-1.00" shape="1332.354191,1251.666308 1334.815834,1251.294821"/>
    <poly id="1059738281" type="building" color="255,230,230" fill="1" layer="-1.00" shape="1341.744270,1261.312379 1345.694126,1285.390092 1347.518193,1285.166587 1349.049786,1294.881279 1375.059459,1291.890273 1370.948313,1258.954285 1368.864349,1257.326138 1341.744270,1261.312379"/>
    <poly id="1059738282" type="building" color="255,230,230" fill="1" layer="-1.00" shape="1357.912090,1283.897005 1358.330189,1287.045655 1355.642345,1287.403582 1355.224489,1284.232794 1357.912090,1283.897005"/>
    <poly id="1059738283" type="building" color="255,230,230" fill="1" layer="-1.00" shape="1363.925148,1286.974306 1366.051713,1286.687704 1365.553723,1282.962504 1363.416623,1283.226849 1363.925148,1286.974306"/>
    <poly id="1059738284" type="unknown" color="51,128,255" fill="0" layer="-1.00" shape="1347.279851,1295.083237 1346.411146,1289.781936"/>
    <poly id="1059738285" type="building" color="255,230,230" fill="1" layer="-1.00" shape="1341.744270,1261.312379 1329.412318,1263.368824 1330.727349,1274.154982 1335.174718,1273.561766 1335.534968,1276.089825 1331.033347,1276.715656 1332.654982,1290.007143 1336.173541,1289.580849 1336.595900,1292.342074 1332.980345,1292.767301 1333.454716,1296.680441 1343.232589,1295.559071 1342.493335,1290.248123 1346.411146,1289.781936 1345.694126,1285.390092 1341.744270,1261.312379"/>
    <poly id="1059738286" type="unknown" color="51,128,255" fill="0" layer="-1.00" shape="1349.049786,1294.881279 1347.279851,1295.083237 1343.232589,1295.559071"/>
    <poly id="1095505360" type="amenity" color="237,199,199" fill="1" layer="-1.00" shape="1509.929447,1179.600376 1516.070860,1178.848689 1514.794380,1168.483616 1508.653087,1169.224235 1509.929447,1179.600376"/>
    <poly id="1095505360#1" type="water" color="181,209,209" fill="1" layer="-4.00" shape="1509.929447,1179.600376 1516.070860,1178.848689 1514.794380,1168.483616 1508.653087,1169.224235 1509.929447,1179.600376"/>
    <poly id="1095505361" type="amenity" color="237,199,199" fill="1" layer="-1.00" shape="1508.808345,1166.867900 1514.550384,1166.167172 1513.818096,1160.225264 1508.076055,1160.925992 1508.808345,1166.867900"/>
    <poly id="1095505361#1" type="water" color="181,209,209" fill="1" layer="-4.00" shape="1508.808345,1166.867900 1514.550384,1166.167172 1513.818096,1160.225264 1508.076055,1160.925992 1508.808345,1166.867900"/>
    <poly id="1095505362" type="building" color="255,230,230" fill="1" layer="-1.00" shape="1518.258159,1181.861813 1540.177115,1179.390573 1545.541818,1178.696774 1550.743155,1178.156168 1558.578468,1177.257062 1554.383191,1147.087739 1514.947388,1152.610023 1518.258159,1181.861813"/>
    <poly id="1095505363" type="building" color="255,230,230" fill="1" layer="-1.00" shape="1509.072985,1182.989640 1518.258159,1181.861813 1540.177115,1179.390573 1545.462522,1215.306468 1516.715420,1219.230349 1513.305398,1216.646603 1509.072985,1182.989640"/>
    <poly id="1095505364" type="building" color="255,230,230" fill="1" layer="-1.00" shape="1545.462522,1215.306468 1551.065176,1214.537795 1545.541818,1178.696774 1540.177115,1179.390573 1545.462522,1215.306468"/>
    <poly id="1095505365" type="building" color="255,230,230" fill="1" layer="-1.00" shape="1551.065176,1214.537795 1556.235999,1213.830796 1550.743155,1178.156168 1545.541818,1178.696774 1551.065176,1214.537795"/>
    <poly id="1095505366" type="building" color="255,230,230" fill="1" layer="-1.00" shape="1556.235999,1213.830796 1564.040795,1212.765299 1558.578468,1177.257062 1550.743155,1178.156168 1556.235999,1213.830796"/>
    <poly id="1095505367" type="building" color="255,230,230" fill="1" layer="-1.00" shape="1564.040795,1212.765299 1578.290233,1210.818622 1573.521826,1174.941610 1558.578468,1177.257062 1564.040795,1212.765299"/>
    <poly id="1095505368" type="building" color="255,230,230" fill="1" layer="-1.00" shape="1578.290233,1210.818622 1585.576860,1209.824926 1583.138867,1191.387648 1582.847750,1189.436014 1580.765474,1173.936367 1573.521826,1174.941610 1578.290233,1210.818622"/>
    <poly id="1095505369" type="building" color="255,230,230" fill="1" layer="-1.00" shape="1585.576860,1209.824926 1598.930309,1208.001251 1596.638340,1190.008401 1583.138867,1191.387648 1585.576860,1209.824926"/>
    <poly id="1095505370" type="building" color="255,230,230" fill="1" layer="-1.00" shape="1582.847750,1189.436014 1596.340952,1187.647085 1594.377359,1172.137671 1580.765474,1173.936367 1582.847750,1189.436014"/>
    <poly id="1095505371" type="building" color="255,230,230" fill="1" layer="-1.00" shape="1560.163791,1174.241147 1577.445751,1171.962490 1576.090563,1159.935950 1574.483529,1147.286684 1573.593676,1143.911425 1556.191318,1146.354823 1560.163791,1174.241147"/>
    <poly id="1095505372" type="building" color="255,230,230" fill="1" layer="-1.00" shape="1577.445751,1171.962490 1595.041483,1169.576590 1593.544003,1157.747753 1576.090563,1159.935950 1577.445751,1171.962490"/>
    <poly id="1095505373" type="building" color="255,230,230" fill="1" layer="-1.00" shape="1505.700449,1138.769689 1507.586161,1153.525427 1514.947388,1152.610023 1554.383191,1147.087739 1552.658560,1132.389117 1530.205252,1135.419079 1505.700449,1138.769689"/>
    <poly id="1095505374" type="building" color="255,230,230" fill="1" layer="-1.00" shape="1522.660057,1209.907836 1535.385357,1208.353985 1533.435551,1192.567968 1520.710122,1194.132891 1522.660057,1209.907836"/>
    <poly id="1095505375" type="amenity" color="237,199,199" fill="1" layer="-1.00" shape="1525.079746,1206.491483 1531.221153,1205.739801 1529.944805,1195.363656 1523.803395,1196.115340 1525.079746,1206.491483"/>
    <poly id="1095505375#1" type="water" color="181,209,209" fill="1" layer="-4.00" shape="1525.079746,1206.491483 1531.221153,1205.739801 1529.944805,1195.363656 1523.803395,1196.115340 1525.079746,1206.491483"/>
    <poly id="1095505376" type="parking" color="184,184,179" fill="1" layer="-1.00" shape="1598.930309,1208.001251 1604.360284,1207.252831 1607.847021,1206.781940 1606.607361,1196.992933 1611.161925,1196.456296 1608.388625,1174.207026 1607.400621,1166.037101 1606.513754,1159.451389 1605.773754,1153.232623 1605.091295,1148.641874 1604.700378,1144.984265 1604.533112,1143.532172 1591.321562,1145.191351 1574.483529,1147.286684 1576.090563,1159.935950 1593.544003,1157.747753 1595.041483,1169.576590 1594.377359,1172.137671 1596.340952,1187.647085 1596.638340,1190.008401 1598.930309,1208.001251"/>
    <poly id="1095505377" type="building" color="255,230,230" fill="1" layer="-1.00" shape="1611.161925,1196.456296 1627.750710,1194.480028 1625.745672,1177.840947 1635.934267,1176.624567 1635.273676,1171.026628 1608.388625,1174.207026 1611.161925,1196.456296"/>
    <poly id="1095505378" type="parking" color="184,184,179" fill="1" layer="-1.00" shape="1612.424112,1206.156986 1628.627458,1203.943996 1636.011333,1202.929243 1638.705653,1200.025169 1636.841887,1184.262220 1635.934267,1176.624567 1625.745672,1177.840947 1627.750710,1194.480028 1611.161925,1196.456296 1612.424112,1206.156986"/>
    <poly id="1095505379" type="unknown" color="51,128,255" fill="0" layer="-1.00" shape="1611.161925,1196.456296 1612.424112,1206.156986 1628.627458,1203.943996"/>
    <poly id="1095505380" type="unknown" color="51,128,255" fill="0" layer="-1.00" shape="1628.627458,1203.943996 1636.011333,1202.929243 1638.705653,1200.025169 1636.841887,1184.262220"/>
    <poly id="1095505381" type="unknown" color="51,128,255" fill="0" layer="-1.00" shape="1636.841887,1184.262220 1635.934267,1176.624567"/>
    <poly id="1095505382" type="unknown" color="51,128,255" fill="0" layer="-1.00" shape="1598.930309,1208.001251 1604.360284,1207.252831 1607.847021,1206.781940 1612.424112,1206.156986"/>
    <poly id="1095505383" type="building" color="255,230,230" fill="1" layer="-1.00" shape="1607.847021,1206.781940 1612.424112,1206.156986 1611.161925,1196.456296 1606.607361,1196.992933 1607.847021,1206.781940"/>
    <poly id="1095511389" type="building" color="255,230,230" fill="1" layer="-1.00" shape="1635.273676,1171.026628 1634.307234,1162.856937 1607.400621,1166.037101 1608.388625,1174.207026 1635.273676,1171.026628"/>
    <poly id="1095511390" type="building" color="255,230,230" fill="1" layer="-1.00" shape="1634.307234,1162.856937 1633.507813,1156.161479 1606.513754,1159.451389 1607.400621,1166.037101 1634.307234,1162.856937"/>
    <poly id="1095511391" type="building" color="255,230,230" fill="1" layer="-1.00" shape="1633.507813,1156.161479 1632.788156,1150.053642 1605.773754,1153.232623 1606.513754,1159.451389 1633.507813,1156.161479"/>
    <poly id="1095511392" type="building" color="255,230,230" fill="1" layer="-1.00" shape="1632.788156,1150.053642 1632.216035,1145.231621 1605.091295,1148.641874 1605.773754,1153.232623 1632.788156,1150.053642"/>
    <poly id="1095511393" type="building" color="255,230,230" fill="1" layer="-1.00" shape="1632.216035,1145.231621 1631.801618,1141.750883 1604.700378,1144.984265 1605.091295,1148.641874 1632.216035,1145.231621"/>
    <poly id="1095511394" type="building" color="255,230,230" fill="1" layer="-1.00" shape="1631.801618,1141.750883 1631.140415,1136.208291 1604.037221,1139.618784 1604.533112,1143.532172 1604.700378,1144.984265 1631.801618,1141.750883"/>
    <poly id="1095511395" type="building" color="255,230,230" fill="1" layer="-1.00" shape="1631.140415,1136.208291 1629.957566,1126.154213 1589.545441,1131.256030 1591.321562,1145.191351 1604.533112,1143.532172 1604.037221,1139.618784 1631.140415,1136.208291"/>
    <poly id="1095527675" type="building" color="255,230,230" fill="1" layer="-1.00" shape="1527.319348,1115.559850 1549.742410,1112.341349 1550.789902,1112.164669 1549.721925,1104.403484 1549.056804,1099.215115 1538.219709,1100.590464 1525.450635,1102.199195 1527.319348,1115.559850"/>
    <poly id="1095527676" type="building" color="255,230,230" fill="1" layer="-1.00" shape="1527.319348,1115.559850 1530.205252,1135.419079 1552.639074,1132.200702 1549.742410,1112.341349 1527.319348,1115.559850"/>
    <poly id="1095527677" type="parking" color="184,184,179" fill="1" layer="-1.00" shape="1505.700449,1138.769689 1530.205252,1135.419079 1528.176829,1121.879537 1524.657629,1122.361154 1520.728275,1122.893614 1521.915851,1131.541762 1505.064976,1133.825203 1505.332720,1135.942636 1505.700449,1138.769689"/>
    <poly id="1095527678" type="building" color="255,230,230" fill="1" layer="-1.00" shape="1503.149604,1118.825586 1505.064976,1133.825203 1521.915851,1131.541762 1520.728275,1122.893614 1524.657629,1122.361154 1528.176829,1121.879537 1527.319348,1115.559850 1503.149604,1118.825586"/>
    <poly id="1095527679" type="building" color="255,230,230" fill="1" layer="-1.00" shape="1559.270217,1123.184650 1573.896554,1121.275319 1572.841676,1113.303933 1558.215335,1115.213266 1559.270217,1123.184650"/>
    <poly id="1095527680" type="building" color="255,230,230" fill="1" layer="-1.00" shape="1586.008289,1103.972300 1571.868025,1105.787337 1572.841676,1113.303933 1573.896554,1121.275319 1588.026032,1119.460166 1586.008289,1103.972300"/>