<?xml version="1.0" encoding="UTF-8"?>

<!-- generated on 2024-05-23 18:03:09.989158 by randomTrips.py v1_19_0+0000-baa66a0f364
<configuration>
    <net-file value="test.net.xml"/>
    <route-file value="map.rou.xml"/>
    <length value="True"/>
    <validate value="True"/>
    <end value="1000.0"/>
</configuration>
-->

<!-- generated on 2024-05-23 18:03:09 by Eclipse SUMO duarouter Version 1.19.0
<configuration xmlns:xsi="http://www.w3.org/2001/XMLSchema-instance" xsi:noNamespaceSchemaLocation="http://sumo.dlr.de/xsd/duarouterConfiguration.xsd">

    <input>
        <net-file value="test.net.xml"/>
        <route-files value="trips.trips.xml"/>
    </input>

    <output>
        <output-file value="map.rou.xml"/>
        <alternatives-output value="NUL"/>
    </output>

    <time>
        <begin value="0"/>
        <end value="1000.0"/>
    </time>

    <report>
        <no-warnings value="true"/>
        <ignore-errors value="true"/>
        <no-step-log value="true"/>
    </report>

</configuration>
-->

<routes xmlns:xsi="http://www.w3.org/2001/XMLSchema-instance" xsi:noNamespaceSchemaLocation="http://sumo.dlr.de/xsd/routes_file.xsd">
    <vehicle id="0" depart="0.00">
        <route edges="48273209#5 48273209#6 48273209#7 48273209#8 48273209#9 1159234896#0 1159234896#1"/>
    </vehicle>
    <vehicle id="1" depart="1.00">
        <route edges="381133556#0 381133556#1 30262982#0 30262982#1 30262982#2 30262982#3 30262982#4 384737905#5 384737905#6 384737905#7 384737905#8 384737905#9 30279769#4"/>
    </vehicle>
    <vehicle id="3" depart="3.00">
        <route edges="65777805#2 65786237#1 65786237#2 65786237#3 65786237#4 65786237#5 65786237#6 65786237#7 65786237#8 51770227#2 -381133555 381133556#0 381133556#1 30262982#0"/>
    </vehicle>
    <vehicle id="4" depart="4.00">
        <route edges="384762167#8 734011347#0 734011347#1 930035058#0 930035058#1 734011350#0 734011350#1 48273209#6 48273209#7 48273209#8 48273209#9 1159234896#0 1159234896#1 384736604#0 384736604#1 384736604#2 384736604#3 384736604#4 384736604#5 384736604#6 384736604#7 384736604#8 1208137406 1208137405 1208137071#0 1208137071#1 1208137071#2 1208137071#3 1159234897"/>
    </vehicle>
    <vehicle id="5" depart="5.00">
        <route edges="30279769#12 406701908#19 65777805#4 65777805#5 65777805#6 48273209#2 48273209#3 48273209#4 48273209#5 48273209#6 48273209#7 48273209#8 48273209#9 1159234896#0 1159234896#1 384736604#0 384736604#1 384736604#2 384736604#3 384736604#4 384736604#5 384736604#6 384736604#7 384736604#8 1208137406 1208137405 1208137071#0 1208137071#1 1208137071#2 1208137071#3 398276347#9 398276347#10 398276347#11 398276347#12 398276347#13 398276347#14 398276347#15 398276347#16 398276347#17 398276347#18 398276347#19"/>
    </vehicle>
    <vehicle id="6" depart="6.00">
        <route edges="1159234896#0 1159234896#1 384736603#9 384736603#10 384736603#11 384736603#12 381133559#0 381133559#1 381133559#2 381133559#3 381133559#4 381133559#5 381133559#6 381133559#7 381133559#8 381133559#9 406701908#0 406701908#1 406701908#2 406701908#3 406701908#4 406701908#5 406701908#6 406701908#7 406701908#8 406701908#9 406701908#10 406701908#11 406701908#12 406701908#13 406701908#14 406701908#15 406701908#16 406701908#17 406701908#18 30279769#13 30279769#14 30279769#15 30279769#16"/>
    </vehicle>
    <vehicle id="7" depart="7.00">
        <route edges="48553870#0 48553870#1 48553870#2 48553870#3 48553870#4 48553870#5 48553870#6 48553870#7 48553870#8 48553870#9 390137512 231755973#0 231755973#1 231755973#2 231755973#3 231755973#4 231755973#5 231755973#6 231755973#7 231755973#8 231755973#9 406701908#15 406701908#16 406701908#17 406701908#18"/>
    </vehicle>
    <vehicle id="8" depart="8.00">
        <route edges="30279769#13 65786237#2 65786237#3 65786237#4 65786237#5 65786237#6 65786237#7 65786237#8 65786237#9 384766456#0 64401270#0 64401270#1 420120092#1"/>
    </vehicle>
    <vehicle id="10" depart="10.00">
        <route edges="643204393#1 643204393#2 643204393#3 420138111#0 420138111#1 420138111#2 420138111#3 1056782163 384762167#0 384762167#1 384762167#2 384762167#3 51770227#1"/>
    </vehicle>
    <vehicle id="11" depart="11.00">
        <route edges="384736604#4 384731375#0 384731375#1 384731375#2 384731375#3 384731375#4 384737905#3 384737905#4 384737905#5 384736603#5 30263010#9"/>
    </vehicle>
    <vehicle id="13" depart="13.00">
        <route edges="292876837#0 292876837#1 65777805#5 65777805#6 48273209#2 48273209#3 48273209#4 48273209#5 48273209#6 48273209#7 48273209#8 48273209#9 1159234896#0 1159234896#1 384736604#0 384736604#1 30262982#2 30262982#3"/>
    </vehicle>
    <vehicle id="14" depart="14.00">
        <route edges="64401414#8 64401414#9 416159271 30263010#8 30263010#9 30263010#10 30263010#11 30263010#12 420120099#10"/>
    </vehicle>
    <vehicle id="16" depart="16.00">
        <route edges="406701908#18 406701908#19 65777805#4 65777805#5 65777805#6 48273209#2 48273209#3 48273209#4 48273209#5 734011350#2 734011350#3 734011350#4 734011350#5 734011350#6 734011350#7 734011350#8 734011350#9"/>
    </vehicle>
    <vehicle id="17" depart="17.00">
        <route edges="384737905#5 384736603#5 384736603#6 384736603#7 384736603#8 384736603#9 384736603#10 384736603#11 384736603#12 381133559#0 381133559#1 381133559#2 381133559#3 381133559#4 381133559#5 381133559#6 381133559#7 381133559#8 381133559#9 406701908#0 406701908#1 406701908#2 406701908#3 406701908#4 406701908#5 406701908#6 406701908#7 406701908#8 406701908#9 406701908#10 406701908#11 406701908#12 406701908#13 406701908#14 406701908#15 406701908#16 406701908#17 406701908#18 406701908#19"/>
    </vehicle>
    <vehicle id="19" depart="19.00">
        <route edges="65777805#0 65777805#1 65777805#2 65777805#3 65777805#4 65777805#5 65777805#6 48273209#2 48273209#3 48273209#4 48273209#5 48273209#6 48273209#7 48273209#8 48273209#9 1159234896#0 1159234896#1 384736604#0 384736604#1 30262982#2 64401414#6 64401414#7 64401414#8 64401414#9 416159271"/>
    </vehicle>
    <vehicle id="20" depart="20.00">
        <route edges="51780527#0 51780527#1 51780527#2 64401270#0 292876836#0 292876836#1 292876836#2 381133555 381133554#0 381133554#1 406701908#0 406701908#1 406701908#2 406701908#3 406701908#4 406701908#5 406701908#6 406701908#7 406701908#8 406701908#9 406701908#10 406701908#11 406701908#12 406701908#13 406701908#14 406701908#15 406701908#16 406701908#17 930035058#0 930035058#1 734011350#0 734011350#1 48273209#6 48273209#7 48273209#8 390137512 231755972#0 231755972#1"/>
    </vehicle>
    <vehicle id="21" depart="21.00">
        <route edges="30279769#2 30279769#3 30279769#4 30279769#5 30279769#6 30279769#7 30279769#8 30279769#9 48273209#5 48273209#6 48273209#7 48273209#8 48273209#9 1159234896#0 1159234896#1 384736604#0 384736604#1 384736604#2 384736604#3 384736604#4 384731375#0 384731375#1 384731375#2 384731375#3 384731375#4 384731375#5"/>
    </vehicle>
    <vehicle id="22" depart="22.00">
        <route edges="231755974#1 384762167#8 734011347#0 734011347#1 930035058#0 930035058#1 734011350#0 734011350#1 734011350#2 734011350#3 64401414#16 30279769#7 30288334#0"/>
    </vehicle>
    <vehicle id="23" depart="23.00">
        <route edges="292876837#1 65777805#5 65777805#6 48273209#2 48273209#3 48273209#4 48273209#5 48273209#6 48273209#7 48273209#8 48273209#9 1159234896#0 1159234896#1 384736604#0 384736604#1 384736604#2 384736604#3 384736604#4 384731375#0"/>
    </vehicle>
    <vehicle id="24" depart="24.00">
        <route edges="48273209#2 48273209#3 48273209#4 30279769#10 734011349#2 65777805#6 65777805#7 65777805#8 65777805#9 65777805#10 384737905#11 384737905#12"/>
    </vehicle>
    <vehicle id="25" depart="25.00">
        <route edges="384737905#3 384737905#4 384737905#5 384736603#5 384736603#6 384736603#7 384736603#8 384736603#9 384736603#10 384736603#11 384736603#12 381133559#0 381133559#1 381133559#2 381133559#3 381133559#4 381133559#5 381133559#6 381133559#7 381133559#8 381133559#9 406701908#0 406701908#1 406701908#2 406701908#3 406701908#4 406701908#5 406701908#6 406701908#7 406701908#8 406701908#9 406701908#10 406701908#11 406701908#12 406701908#13 406701908#14 406701908#15 406701908#16 406701908#17 406701908#18 30279769#13 30279769#14 30279769#15 30279769#16"/>
    </vehicle>
    <vehicle id="26" depart="26.00">
        <route edges="381097552#4 384762167#3 384762167#4 384762167#5 384762167#6 1057741813#1 1057741813#2 406701908#7 406701908#8 406701908#9 406701908#10 406701908#11 406701908#12 406701908#13 406701908#14 406701908#15 406701908#16 406701908#17 930035058#0 930035058#1 734011349#0 734011349#1 734011349#2"/>
    </vehicle>
    <vehicle id="27" depart="27.00">
        <route edges="48273209#9 1159234896#0 1159234896#1 384736604#0 384736604#1 384736604#2 384736604#3 384736604#4 384731375#0 384731375#1 384731375#2 384731375#3 30263010#12 420120099#10 420120099#11 420120099#12 420120099#13 420120099#14 420120099#15"/>
    </vehicle>
    <vehicle id="29" depart="29.00">
        <route edges="30263010#13 398276347#13 384737905#1 384737905#2 384737905#3 384737905#4"/>
    </vehicle>
    <vehicle id="30" depart="30.00">
        <route edges="734011350#3 64401414#16 30279769#7 30279769#8 30279769#9 48273209#5 48273209#6 48273209#7 48273209#8 48273209#9 1159234896#0 1159234896#1 384736604#0 384736604#1 384736604#2 384736604#3 384736604#4 384736604#5 384736604#6 384736604#7 384736604#8 643204393#0 643204393#1 643204393#2 643204393#3 420138111#0 420138111#1"/>
    </vehicle>
    <vehicle id="32" depart="32.00">
        <route edges="64401414#5 64401414#6 384736603#7 384736603#8 384736604#0 384736604#1 384736604#2 60237267#9 381097552#0 381097552#1 420120092#0 64401270#2"/>
    </vehicle>
    <vehicle id="33" depart="33.00">
        <route edges="30279769#2 30279769#3 30279769#4 30279769#5 30279769#6 30279769#7 30279769#8 30279769#9 48273209#5 48273209#6 48273209#7 48273209#8 48273209#9 1159234896#0 1159234896#1 384736604#0 384736604#1 384736604#2 384736604#3 384736604#4 384736604#5 384736604#6 384736604#7 384736604#8 1208137406 1208137405 1208137071#0 1208137071#1"/>
    </vehicle>
    <vehicle id="34" depart="34.00">
        <route edges="384736603#4 384736603#5 384736603#6 384736603#7 384736603#8 384736603#9 384736603#10 384736603#11 384736603#12 381133559#0 381133559#1 381133559#2 381133559#3 381133559#4 381133559#5 381133559#6 381133559#7 381133559#8 381133559#9 637366830#0 65786237#8 51770227#2 381133554#0"/>
    </vehicle>
    <vehicle id="35" depart="35.00">
        <route edges="30279769#1 30279769#2 30279769#3 30279769#4 30279769#5 30279769#6 30279769#7 30279769#8 30279769#9 30279769#10 734011349#2 734011349#3"/>
    </vehicle>
    <vehicle id="37" depart="37.00">
        <route edges="48553870#0 48553870#1 48553870#2 48553870#3 384737905#8"/>
    </vehicle>
    <vehicle id="38" depart="38.00">
        <route edges="65786237#0 65786237#1 65786237#2 65786237#3 65786237#4 65786237#5 65786237#6 65786237#7 65786237#8 65786237#9 384766456#0 384766456#1 384766456#2"/>
    </vehicle>
    <vehicle id="39" depart="39.00">
        <route edges="381097552#4 381097552#5 30263002#0 30263002#1 51780527#1 51780527#2 64401270#0 292876836#0 381097552#3"/>
    </vehicle>
    <vehicle id="40" depart="40.00">
        <route edges="420120092#0 64401270#2 384766447#0 384766447#1 381097552#0 381097552#1 381097552#2 381097552#3 381097552#4 381097552#5 381097552#6 381097552#7"/>
    </vehicle>
    <vehicle id="41" depart="41.00">
        <route edges="420120099#2 420120099#3 420120099#4 420120099#5 420120099#6 420120099#7 420120099#8 384737905#2 384737905#3 384737905#4 384737905#5 384736603#5 384736603#6 384736603#7 384736603#8 384736603#9 384736603#10 384736603#11 384736603#12 381133559#0 381133559#1 381133559#2 381133559#3 381133559#4 381133559#5 381133559#6 381133559#7 381133559#8 381133559#9 406701908#0 406701908#1 406701908#2 406701908#3 406701908#4 406701908#5 406701908#6 406701908#7 406701908#8 406701908#9 406701908#10 406701908#11 406701908#12 406701908#13 406701908#14 231755974#0 65786237#5"/>
    </vehicle>
    <vehicle id="43" depart="43.00">
        <route edges="930035058#0 930035058#1 734011350#0 734011350#1 48273209#6 48273209#7 48273209#8 48273209#9 1159234896#0 1159234896#1 384736604#0 384736604#1 384736604#2 384736604#3 384736604#4 384736604#5 384736604#6 384736604#7 384736604#8 1208137406 1208137405 1208137071#0 1208137071#1 1208137071#2 1208137071#3 398276347#9 398276347#10 398276347#11 398276347#12 398276347#13 398276347#14 398276347#15 398276347#16 398276347#17 398276347#18 398276347#19"/>
    </vehicle>
    <vehicle id="44" depart="44.00">
        <route edges="292876837#0 292876837#1 65777805#5 65777805#6 48273209#2 48273209#3 48273209#4 48273209#5 48273209#6 48273209#7 48273209#8 390137512 231755973#0 231755973#1"/>
    </vehicle>
    <vehicle id="46" depart="46.00">
        <route edges="60237267#8 60237267#9 381097552#0 381097552#1 381097552#2 292876836#1 292876836#2 381133555 381133554#0 381133554#1 637366830#0 637366830#1 384762167#5 384762167#6 384762167#7"/>
    </vehicle>
    <vehicle id="47" depart="47.00">
        <route edges="200691268#0 200691268#1 384762167#0 384762167#1 51780527#2 64401270#0 64401270#1 64401270#2 384766449 384731375#0 384731375#1 384731375#2 384731375#3 384731375#4 384737905#3 384737905#4 384737905#5"/>
    </vehicle>
    <vehicle id="48" depart="48.00">
        <route edges="930035058#0 930035058#1 734011350#0 734011350#1 48273209#6 48273209#7 48273209#8 48273209#9 1159234896#0 1159234896#1 384736604#0 384736604#1 384736604#2 384736604#3 384736604#4 384736604#5 384736604#6 384736604#7 384736604#8 643204393#0 643204393#1 643204393#2 643204393#3 420138111#0 420138111#1 420138111#2 384766456#3 384766456#4 398276347#3"/>
    </vehicle>
    <vehicle id="49" depart="49.00">
        <route edges="734011349#1 734011349#2 65777805#6 65777805#7 65777805#8 65777805#9 65777805#10 65777805#11 65777805#12 65777805#13 65777805#14"/>
    </vehicle>
    <vehicle id="51" depart="51.00">
        <route edges="48553870#9 48273209#9 1159234896#0 1159234896#1 384736604#0 384736604#1 384736604#2 384736604#3 384736604#4 384736604#5 384736604#6 384736604#7 384736604#8 643204393#0 643204393#1 643204393#2 643204393#3 420138111#0 420138111#1 420120092#3 420120092#4 398276347#4 398276347#5 398276347#6 398276347#7"/>
    </vehicle>
    <vehicle id="52" depart="52.00">
        <route edges="381097552#4 381097552#5 30263002#0 30263002#1 51780527#1 51780527#2 64401270#0 64401270#1 420120092#1 420120092#2 420138111#2"/>
    </vehicle>
    <vehicle id="54" depart="54.00">
        <route edges="384766456#0 64401270#0 292876836#0 292876836#1 292876836#2 381133555 381133554#0 381133554#1 406701908#0 406701908#1 406701908#2 406701908#3 406701908#4 406701908#5 406701908#6 406701908#7 406701908#8 406701908#9 406701908#10 406701908#11 406701908#12 406701908#13 406701908#14 406701908#15 406701908#16 406701908#17 930035058#0 930035058#1 734011349#0 734011349#1 734011349#2 734011349#3 734011349#4"/>
    </vehicle>
    <vehicle id="57" depart="57.00">
        <route edges="65786237#0 65777805#3 65777805#4 65777805#5"/>
    </vehicle>
    <vehicle id="58" depart="58.00">
        <route edges="384736603#1 384736603#2 384736603#3 384736603#4 384736603#5 384736603#6 384736603#7 384736603#8 384736604#0 384736604#1 384736604#2 384736604#3 384736604#4 384736604#5 384736604#6 384736604#7 384736604#8 643204393#0 643204393#1 643204393#2 643204393#3 420138111#0"/>
    </vehicle>
    <vehicle id="59" depart="59.00">
        <route edges="420138110#4 420138110#5 384766449 384731375#0 384731375#1 384731375#2 64401414#3 64401414#4 64401414#5 64401414#6 64401414#7 64401414#8 64401414#9 416159271 30263010#8"/>
    </vehicle>
    <vehicle id="60" depart="60.00">
        <route edges="60237267#0 60237267#1 60237267#2 60237267#3 60237267#4 384737905#4 384737905#5 384736603#5 384736603#6 384736603#7 384736603#8 384736603#9 384736603#10 384736603#11 384736603#12 381133559#0 381133559#1 381133559#2 381133559#3 381133559#4 381133559#5 381133559#6 381133559#7 381133559#8 381133559#9 406701908#0 406701908#1 406701908#2 406701908#3 406701908#4 406701908#5 406701908#6 406701908#7 406701908#8 406701908#9 406701908#10 406701908#11 406701908#12"/>
    </vehicle>
    <vehicle id="61" depart="61.00">
        <route edges="60237267#4 60237267#5 60237267#6 60237267#7 60237267#8 384736604#3 384736604#4 384736604#5 384736604#6 384736604#7 384736604#8 643204393#0 643204393#1 643204393#2 643204393#3 420138111#0 420138111#1 420138111#2 384766456#3 384766456#4 398276347#3"/>
    </vehicle>
    <vehicle id="62" depart="62.00">
        <route edges="-1095760044 -1095760045 -1095760068 384766442#7 384766442#8 384766442#9 384766442#10 732305246 1049482885 420138110#0 420138110#1 420138110#2 420138110#3 420138110#4 420138110#5 384766449 384731375#0 384731375#1 384731375#2 64401414#3 64401414#4 64401414#5 64401414#6 384736603#7"/>
    </vehicle>
    <vehicle id="63" depart="63.00">
        <route edges="1057741813#1 1057741813#2 406701908#7 406701908#8 406701908#9 406701908#10 406701908#11 406701908#12 406701908#13 406701908#14 406701908#15 406701908#16 406701908#17 406701908#18 30279769#13 65786237#2 734011347#1"/>
    </vehicle>
    <vehicle id="64" depart="64.00">
        <route edges="65777805#11 65777805#12"/>
    </vehicle>
    <vehicle id="65" depart="65.00">
        <route edges="384736603#2 384736603#3 384736603#4 384736603#5 384736603#6 384736603#7 384736603#8 384736603#9 384736603#10 384736603#11 384736603#12 381133559#0 381133559#1 381133559#2 381133559#3 381133559#4 381133559#5 381133559#6 381133559#7 381133559#8 381133559#9 406701908#0 406701908#1 406701908#2 406701908#3 406701908#4 406701908#5 406701908#6 406701908#7 406701908#8 406701908#9 406701908#10 406701908#11 406701908#12 406701908#13 406701908#14 231755974#0 231755974#1"/>
    </vehicle>
    <vehicle id="67" depart="67.00">
        <route edges="292876836#1 292876836#2 381133556#0 381133556#1 30262982#0 30262982#1 384736604#2 384736604#3 384736604#4 384736604#5 384736604#6 384736604#7 384736604#8 1208137406 1208137405 1208137071#0 1208137071#1 1208137071#2 1208137071#3 398276347#9 398276347#10 398276347#11 398276347#12 398276347#13"/>
    </vehicle>
    <vehicle id="68" depart="68.00">
        <route edges="231755972#1 734011350#0 734011350#1 48273209#6 48273209#7 48273209#8 48273209#9 1159234896#0 1159234896#1 384736603#9 384736603#10 384736603#11 384736603#12 381133559#0 381133559#1 381133559#2 381133559#3 381133559#4 381133559#5 381133559#6 381133559#7 381133559#8 381133559#9 637366830#0 637366830#1"/>
    </vehicle>
    <vehicle id="69" depart="69.00">
        <route edges="60237267#0 60237267#1 60237267#2 60237267#3 60237267#4 60237267#5 30263010#11 30263010#12"/>
    </vehicle>
    <vehicle id="70" depart="70.00">
        <route edges="398276347#11 398276347#12 398276347#13 384737905#1 384737905#2 384737905#3 384737905#4 384737905#5 384736603#5 384736603#6 384736603#7 384736603#8 384736603#9 384736603#10 384736603#11 384736603#12 381133559#0 381133559#1 381133559#2 381133559#3 381133559#4 381133559#5 381133559#6 381133559#7 381133559#8 381133559#9 406701908#0 406701908#1 406701908#2 406701908#3 406701908#4 406701908#5 406701908#6 406701908#7 406701908#8 406701908#9 406701908#10 406701908#11 406701908#12 406701908#13 406701908#14 406701908#15 406701908#16 406701908#17 406701908#18 406701908#19"/>
    </vehicle>
    <vehicle id="71" depart="71.00">
        <route edges="381097552#4 384762167#3 384762167#4 384762167#5 384762167#6 1057741813#1 1057741813#2 406701908#7 406701908#8 406701908#9 406701908#10 406701908#11 406701908#12 406701908#13 406701908#14 406701908#15 406701908#16 406701908#17 406701908#18 406701908#19 65777805#4 65777805#5 65777805#6"/>
    </vehicle>
    <vehicle id="77" depart="77.00">
        <route edges="30262982#2 30262982#3 30262982#4 384737905#5 384737905#6 384737905#7 384737905#8 384737905#9 30279769#4 30279769#5"/>
    </vehicle>
    <vehicle id="78" depart="78.00">
        <route edges="384736604#3 384736604#4 384736604#5 384736604#6 384736604#7 384736604#8 643204393#0 643204393#1 643204393#2 643204393#3 420138110#0 420138110#1 420138110#2 420138110#3 420138110#4 420138110#5 384766447#0 384766447#1 381097552#0 381097552#1 420120092#0 420120092#1"/>
    </vehicle>
    <vehicle id="79" depart="79.00">
        <route edges="30279769#2 30279769#3"/>
    </vehicle>
    <vehicle id="81" depart="81.00">
        <route edges="30279769#2 30279769#3 30279769#4 30279769#5 30279769#6 30279769#7 30279769#8 30279769#9 48273209#5 48273209#6 48273209#7 48273209#8 48273209#9 1159234896#0 1159234896#1 384736603#9 384736603#10 384736603#11 384736603#12 381133559#0 381133559#1 381133559#2 381133559#3 381133559#4 381133559#5 381133559#6 381133559#7 381133559#8 381133559#9 637366830#0 65786237#8"/>
    </vehicle>
    <vehicle id="83" depart="83.00">
        <route edges="30279769#4 30279769#5 30279769#6 30279769#7 30279769#8 30279769#9 48273209#5 48273209#6 48273209#7 48273209#8 48273209#9"/>
    </vehicle>
    <vehicle id="84" depart="84.00">
        <route edges="30279769#10 30279769#11 292876837#3 930035058#1 734011350#0 734011350#1 48273209#6 48273209#7 48273209#8 48273209#9 1159234896#0 1159234896#1 384736604#0 384736604#1 384736604#2 384736604#3 384736604#4 384731375#0 384731375#1 384731375#2 384731375#3 30263010#12"/>
    </vehicle>
    <vehicle id="85" depart="85.00">
        <route edges="65786237#3 65786237#4 65786237#5 65786237#6 65786237#7 637366830#1 384762167#5 416159268"/>
    </vehicle>
    <vehicle id="86" depart="86.00">
        <route edges="398276347#10 1283027704#2 1283027704#3 64401414#0 64401414#1 64401414#2 64401414#3 64401414#4 64401414#5 64401414#6 64401414#7 64401414#8 64401414#9 64401414#10 64401414#11"/>
    </vehicle>
    <vehicle id="87" depart="87.00">
        <route edges="64401270#0 292876836#0 292876836#1 292876836#2 381133555 381133554#0 381133554#1 406701908#0 406701908#1 406701908#2 406701908#3 406701908#4 406701908#5 406701908#6 406701908#7 406701908#8 406701908#9 406701908#10 406701908#11 406701908#12 406701908#13 406701908#14 406701908#15 406701908#16 406701908#17 406701908#18 30279769#13 30279769#14 30279769#15 30279769#16"/>
    </vehicle>
    <vehicle id="89" depart="89.00">
        <route edges="384762167#8 734011347#0 734011347#1 930035058#0 930035058#1 734011350#0 734011350#1 48273209#6 48273209#7 48273209#8 48273209#9 1159234896#0 1159234896#1 384736604#0 384736604#1 384736604#2 384736604#3 384736604#4 384736604#5 384736604#6 384736604#7 384736604#8 643204393#0 643204393#1 643204393#2 643204393#3 420138111#0 420138111#1 420138111#2 384766456#3 384766456#4 384766456#5"/>
    </vehicle>
    <vehicle id="91" depart="91.00">
        <route edges="734011350#0 734011350#1 48273209#6 48273209#7 48273209#8 48273209#9 1159234896#0 1159234896#1 384736604#0 384736604#1 30262982#2 30262982#3 30262982#4"/>
    </vehicle>
    <vehicle id="92" depart="92.00">
        <route edges="384762167#2 384762167#3 51770227#1 51770227#2 -381133555 381133556#0 381133556#1 30262982#0 30262982#1 384736604#2 384736604#3 384736604#4"/>
    </vehicle>
    <vehicle id="93" depart="93.00">
        <route edges="65777805#0 65777805#1 65777805#2 65786237#1 65786237#2 65786237#3 65786237#4 65786237#5 65786237#6 65786237#7 65786237#8 65786237#9 381097552#4"/>
    </vehicle>
    <vehicle id="94" depart="94.00">
        <route edges="30279769#0 30279769#1 30279769#2 30279769#3 30279769#4 30279769#5 30279769#6 30279769#7 30279769#8 30279769#9 48273209#5 48273209#6 48273209#7 48273209#8 48273209#9 1159234896#0 1159234896#1 384736604#0 384736604#1 384736604#2 384736604#3 384736604#4 384736604#5 384736604#6 384736604#7 384736604#8 643204393#0 643204393#1 643204393#2 643204393#3 420138110#0 420138110#1 420138110#2 420138110#3 420138110#4 420138110#5 384766449"/>
    </vehicle>
    <vehicle id="95" depart="95.00">
        <route edges="384762167#8 734011347#0 734011347#1 930035058#0 930035058#1 734011350#0 734011350#1 48273209#6 48273209#7 48273209#8 48273209#9 1159234896#0 1159234896#1 384736604#0 384736604#1 384736604#2 384736604#3 384736604#4 384731375#0"/>
    </vehicle>
    <vehicle id="96" depart="96.00">
        <route edges="30288334#0 30288334#1 48553870#9 48273209#9 1159234896#0 1159234896#1 384736604#0 384736604#1 384736604#2 384736604#3 384736604#4 384736604#5 384736604#6 384736604#7 384736604#8 643204393#0 643204393#1 643204393#2 643204393#3 420138111#0 420138111#1 420138111#2 420138111#3 1056782163 732305247#0 732305247#1 732305247#2"/>
    </vehicle>
    <vehicle id="98" depart="98.00">
        <route edges="416159271 30263010#8 384736603#6 384736603#7 384736603#8 384736603#9 384736603#10 384736603#11 384736603#12 381133559#0 381133559#1 381133559#2 381133559#3 381133559#4 381133559#5 381133559#6 381133559#7 381133559#8 381133559#9 406701908#0 406701908#1 406701908#2 406701908#3 406701908#4 406701908#5 406701908#6 406701908#7 406701908#8 406701908#9 406701908#10 406701908#11 406701908#12 406701908#13 406701908#14 231755974#0"/>
    </vehicle>
    <vehicle id="99" depart="99.00">
        <route edges="930035058#1 734011350#0 734011350#1 734011350#2 734011350#3 734011350#4 734011350#5 734011350#6 734011350#7 734011350#8 384737905#9 384737905#10 65777805#11 65777805#12 65777805#13"/>
    </vehicle>
    <vehicle id="100" depart="100.00">
        <route edges="734011347#1 406701908#18 30279769#13 65786237#2 65786237#3 65786237#4 231755974#1 384762167#8 734011347#0"/>
    </vehicle>
    <vehicle id="101" depart="101.00">
        <route edges="649339604 398276347#1 200691268#0 200691268#1 384762167#0 384762167#1 51780527#2 64401270#0 292876836#0 292876836#1 292876836#2 381133555 381133554#0 381133554#1 406701908#0 406701908#1 406701908#2 406701908#3 406701908#4 406701908#5 406701908#6 406701908#7 406701908#8 406701908#9 406701908#10 406701908#11 406701908#12 406701908#13 406701908#14 406701908#15 406701908#16 406701908#17 930035058#0 930035058#1 734011349#0 734011349#1 30279769#11"/>
    </vehicle>
    <vehicle id="103" depart="103.00">
        <route edges="384762167#1 384762167#2 384762167#3 384762167#4 384762167#5 384762167#6 384762167#7 231755974#2"/>
    </vehicle>
    <vehicle id="104" depart="104.00">
        <route edges="384737905#5 384737905#6 384737905#7 384737905#8 734011350#9"/>
    </vehicle>
    <vehicle id="105" depart="105.00">
        <route edges="381097552#4 384762167#3 51770227#1 51770227#2 -381133555 381133556#0 381133556#1 30262982#0 30262982#1 30262982#2 64401414#6 64401414#7 64401414#8 64401414#9 64401414#10 64401414#11"/>
    </vehicle>
    <vehicle id="106" depart="106.00">
        <route edges="384766456#0 64401270#0 292876836#0 292876836#1 292876836#2 381133555 381133554#0 381133554#1 637366830#0 637366830#1 384762167#5 384762167#6 384762167#7"/>
    </vehicle>
    <vehicle id="108" depart="108.00">
        <route edges="420120091 384766456#4 398276347#3 398276347#4 398276347#5 384766442#4 384766442#5 384766442#6 384766442#7 384766442#8 384766442#9 384766442#10 732305246 1049482885 420138111#0 420138111#1 420138111#2 420138111#3 1056782163 384762167#0 59566215#1 59566215#2"/>
    </vehicle>
    <vehicle id="110" depart="110.00">
        <route edges="734011347#1 930035058#0 930035058#1 734011350#0 734011350#1 48273209#6 48273209#7 48273209#8 48273209#9 1159234896#0 1159234896#1 384736604#0 384736604#1 384736604#2 384736604#3 384736604#4 384736604#5 384736604#6 384736604#7 384736604#8 643204393#0 643204393#1 643204393#2 643204393#3 420138111#0 420138111#1 420120092#3 420120091"/>
    </vehicle>
    <vehicle id="112" depart="112.00">
        <route edges="1283027704#0 1283027704#1 1283027704#2 1283027704#3 420120099#13 420120099#14 420120099#15 643204393#0 643204393#1 643204393#2 643204393#3 420138110#0 420138110#1 420138110#2 420138110#3 420138110#4 420138110#5 384766447#0 384766447#1 381097552#0 381097552#1 420120092#0"/>
    </vehicle>
    <vehicle id="114" depart="114.00">
        <route edges="30263010#12 420120099#10 420120099#11 420120099#12 64401414#0 64401414#1 64401414#2 64401414#3 64401414#4 64401414#5 64401414#6 384736603#7 384736603#8 384736603#9 384736603#10 384736603#11 384736603#12 381133559#0 381133559#1 381133559#2 381133559#3 381133559#4 381133559#5 381133559#6 381133559#7 381133559#8 381133559#9 406701908#0 406701908#1 406701908#2 406701908#3 406701908#4 406701908#5 406701908#6 406701908#7 406701908#8 406701908#9 406701908#10 406701908#11 406701908#12 406701908#13 406701908#14 406701908#15 406701908#16 406701908#17 930035058#0 930035058#1 734011350#0 734011350#1 734011350#2 734011350#3"/>
    </vehicle>
    <vehicle id="115" depart="115.00">
        <route edges="231755974#1 384762167#8 734011347#0 734011347#1 406701908#18 30279769#13 30279769#14 30279769#15 30279769#16"/>
    </vehicle>
    <vehicle id="117" depart="117.00">
        <route edges="30279769#3 30279769#4 30279769#5 30279769#6 64401414#17 65777805#9 30263010#1"/>
    </vehicle>
    <vehicle id="120" depart="120.00">
        <route edges="384762167#7 384762167#8 734011347#0 734011347#1 930035058#0 930035058#1 734011350#0 734011350#1 48273209#6 48273209#7 48273209#8 48273209#9 1159234896#0 1159234896#1 384736604#0 384736604#1 384736604#2 60237267#9 381097552#0 381097552#1 420120092#0"/>
    </vehicle>
    <vehicle id="121" depart="121.00">
        <route edges="398276347#5 384766442#4 384766442#5 384766442#6 384766442#7 384766442#8 384766442#9 384766442#10 732305246 1049482885 420138110#0 420138110#1 420138110#2 420138110#3 420138110#4 420138110#5 384766447#0 384766447#1 381097552#0 381097552#1 381097552#2 292876836#1 292876836#2 381133555 381133554#0 381133554#1 406701908#0 406701908#1 406701908#2 406701908#3 406701908#4 406701908#5 406701908#6 406701908#7 406701908#8 406701908#9 406701908#10 406701908#11 406701908#12 406701908#13 406701908#14 406701908#15 406701908#16 406701908#17 930035058#0 930035058#1 734011349#0 734011349#1"/>