<?xml version="1.0" encoding="UTF-8"?>

<!-- generated on 2024-05-23 18:03:10.272309 by randomTrips.py v1_19_0+0000-baa66a0f364
<configuration>
    <net-file value="test.net.xml"/>
    <route-file value="map.rou.xml"/>
    <length value="True"/>
    <validate value="True"/>
    <end value="1000.0"/>
</configuration>
-->

<!-- generated on 2024-05-23 18:03:10 by Eclipse SUMO duarouter Version 1.19.0
<configuration xmlns:xsi="http://www.w3.org/2001/XMLSchema-instance" xsi:noNamespaceSchemaLocation="http://sumo.dlr.de/xsd/duarouterConfiguration.xsd">

    <input>
        <net-file value="test.net.xml"/>
        <route-files value="trips.trips.xml"/>
    </input>

    <output>
        <output-file value="trips.trips.xml.tmp"/>
        <alternatives-output value="NUL"/>
        <write-trips value="true"/>
    </output>

    <time>
        <begin value="0"/>
        <end value="1000.0"/>
    </time>

    <report>
        <no-warnings value="true"/>
        <ignore-errors value="true"/>
        <no-step-log value="true"/>
    </report>

</configuration>
-->

<routes>
    <!-- xmlns:xsi="http://www.w3.org/2001/XMLSchema-instance" xsi:noNamespaceSchemaLocation="http://sumo.dlr.de/xsd/routes_file.xsd" -->
    <trip id="0" depart="0.00" from="48273209#5" to="1159234896#1"/>
    <trip id="1" depart="1.00" from="381133556#0" to="30279769#4"/>
    <trip id="3" depart="3.00" from="65777805#2" to="30262982#0"/>
    <trip id="4" depart="4.00" from="384762167#8" to="1159234897"/>
    <trip id="5" depart="5.00" from="30279769#12" to="398276347#19"/>
    <trip id="6" depart="6.00" from="1159234896#0" to="30279769#16"/>
    <trip id="7" depart="7.00" from="48553870#0" to="406701908#18"/>
    <trip id="8" depart="8.00" from="30279769#13" to="420120092#1"/>
    <trip id="10" depart="10.00" from="643204393#1" to="51770227#1"/>
    <trip id="11" depart="11.00" from="384736604#4" to="30263010#9"/>
    <trip id="13" depart="13.00" from="292876837#0" to="30262982#3"/>
    <trip id="14" depart="14.00" from="64401414#8" to="420120099#10"/>
    <trip id="16" depart="16.00" from="406701908#18" to="734011350#9"/>
    <trip id="17" depart="17.00" from="384737905#5" to="406701908#19"/>
    <trip id="19" depart="19.00" from="65777805#0" to="416159271"/>
    <trip id="20" depart="20.00" from="51780527#0" to="231755972#1"/>
    <trip id="21" depart="21.00" from="30279769#2" to="384731375#5"/>
    <trip id="22" depart="22.00" from="231755974#1" to="30288334#0"/>
    <trip id="23" depart="23.00" from="292876837#1" to="384731375#0"/>
    <trip id="24" depart="24.00" from="48273209#2" to="384737905#12"/>
    <trip id="25" depart="25.00" from="384737905#3" to="30279769#16"/>
    <trip id="26" depart="26.00" from="381097552#4" to="734011349#2"/>
    <trip id="27" depart="27.00" from="48273209#9" to="420120099#15"/>
    <trip id="29" depart="29.00" from="30263010#13" to="384737905#4"/>
    <trip id="30" depart="30.00" from="734011350#3" to="420138111#1"/>
    <trip id="32" depart="32.00" from="64401414#5" to="64401270#2"/>
    <trip id="33" depart="33.00" from="30279769#2" to="1208137071#1"/>
    <trip id="34" depart="34.00" from="384736603#4" to="381133554#0"/>
    <trip id="35" depart="35.00" from="30279769#1" to="734011349#3"/>
    <trip id="37" depart="37.00" from="48553870#0" to="384737905#8"/>
    <trip id="38" depart="38.00" from="65786237#0" to="384766456#2"/>
    <trip id="39" depart="39.00" from="381097552#4" to="381097552#3"/>
    <trip id="40" depart="40.00" from="420120092#0" to="381097552#7"/>
    <trip id="41" depart="41.00" from="420120099#2" to="65786237#5"/>
    <trip id="43" depart="43.00" from="930035058#0" to="398276347#19"/>
    <trip id="44" depart="44.00" from="292876837#0" to="231755973#1"/>
    <trip id="46" depart="46.00" from="60237267#8" to="384762167#7"/>
    <trip id="47" depart="47.00" from="200691268#0" to="384737905#5"/>
    <trip id="48" depart="48.00" from="930035058#0" to="398276347#3"/>
    <trip id="49" depart="49.00" from="734011349#1" to="65777805#14"/>
    <trip id="51" depart="51.00" from="48553870#9" to="398276347#7"/>
    <trip id="52" depart="52.00" from="381097552#4" to="420138111#2"/>
    <trip id="54" depart="54.00" from="384766456#0" to="734011349#4"/>
    <trip id="57" depart="57.00" from="65786237#0" to="65777805#5"/>
    <trip id="58" depart="58.00" from="384736603#1" to="420138111#0"/>
    <trip id="59" depart="59.00" from="420138110#4" to="30263010#8"/>
    <trip id="60" depart="60.00" from="60237267#0" to="406701908#12"/>
    <trip id="61" depart="61.00" from="60237267#4" to="398276347#3"/>
    <trip id="62" depart="62.00" from="-1095760044" to="384736603#7"/>
    <trip id="63" depart="63.00" from="1057741813#1" to="734011347#1"/>
    <trip id="64" depart="64.00" from="65777805#11" to="65777805#12"/>
    <trip id="65" depart="65.00" from="384736603#2" to="231755974#1"/>
    <trip id="67" depart="67.00" from="292876836#1" to="398276347#13"/>
    <trip id="68" depart="68.00" from="231755972#1" to="637366830#1"/>
    <trip id="69" depart="69.00" from="60237267#0" to="30263010#12"/>
    <trip id="70" depart="70.00" from="398276347#11" to="406701908#19"/>
    <trip id="71" depart="71.00" from="381097552#4" to="65777805#6"/>
    <trip id="77" depart="77.00" from="30262982#2" to="30279769#5"/>
    <trip id="78" depart="78.00" from="384736604#3" to="420120092#1"/>
    <trip id="79" depart="79.00" from="30279769#2" to="30279769#3"/>
    <trip id="81" depart="81.00" from="30279769#2" to="65786237#8"/>
    <trip id="83" depart="83.00" from="30279769#4" to="48273209#9"/>
    <trip id="84" depart="84.00" from="30279769#10" to="30263010#12"/>
    <trip id="85" depart="85.00" from="65786237#3" to="416159268"/>
    <trip id="86" depart="86.00" from="398276347#10" to="64401414#11"/>
    <trip id="87" depart="87.00" from="64401270#0" to="30279769#16"/>
    <trip id="89" depart="89.00" from="384762167#8" to="384766456#5"/>
    <trip id="91" depart="91.00" from="734011350#0" to="30262982#4"/>
    <trip id="92" depart="92.00" from="384762167#2" to="384736604#4"/>
    <trip id="93" depart="93.00" from="65777805#0" to="381097552#4"/>
    <trip id="94" depart="94.00" from="30279769#0" to="384766449"/>
    <trip id="95" depart="95.00" from="384762167#8" to="384731375#0"/>
    <trip id="96" depart="96.00" from="30288334#0" to="732305247#2"/>
    <trip id="98" depart="98.00" from="416159271" to="231755974#0"/>
    <trip id="99" depart="99.00" from="930035058#1" to="65777805#13"/>
    <trip id="100" depart="100.00" from="734011347#1" to="734011347#0"/>
    <trip id="101" depart="101.00" from="649339604" to="30279769#11"/>
    <trip id="103" depart="103.00" from="384762167#1" to="231755974#2"/>
    <trip id="104" depart="104.00" from="384737905#5" to="734011350#9"/>
    <trip id="105" depart="105.00" from="381097552#4" to="64401414#11"/>
    <trip id="106" depart="106.00" from="384766456#0" to="384762167#7"/>
    <trip id="108" depart="108.00" from="420120091" to="59566215#2"/>
    <trip id="110" depart="110.00" from="734011347#1" to="420120091"/>
    <trip id="112" depart="112.00" from="1283027704#0" to="420120092#0"/>
    <trip id="114" depart="114.00" from="30263010#12" to="734011350#3"/>
    <trip id="115" depart="115.00" from="231755974#1" to="30279769#16"/>
    <trip id="117" depart="117.00" from="30279769#3" to="30263010#1"/>
    <trip id="120" depart="120.00" from="384762167#7" to="420120092#0"/>
    <trip id="121" depart="121.00" from="398276347#5" to="734011349#1"/>
    <trip id="122" depart="122.00" from="30279769#0" to="59566215#2"/>
    <trip id="123" depart="123.00" from="30279769#4" to="384737905#8"/>
    <trip id="125" depart="125.00" from="384736603#4" to="60237267#9"/>
    <trip id="126" depart="126.00" from="231755973#8" to="384766456#2"/>
    <trip id="127" depart="127.00" from="930035058#1" to="930035058#0"/>
    <trip id="129" depart="129.00" from="381097552#4" to="734011349#0"/>
    <trip id="132" depart="132.00" from="64401414#17" to="51780527#1"/>
    <trip id="133" depart="133.00" from="420138111#1" to="734011350#9"/>
    <trip id="136" depart="136.00" from="48553870#2" to="734011349#2"/>
    <trip id="138" depart="138.00" from="292876837#2" to="406701908#20"/>
    <trip id="139" depart="139.00" from="381133554#0" to="420120099#10"/>
    <trip id="140" depart="140.00" from="59566215#0" to="30279769#16"/>
    <trip id="141" depart="141.00" from="48273209#2" to="381097552#7"/>
    <trip id="143" depart="143.00" from="64401414#6" to="30262982#2"/>
    <trip id="144" depart="144.00" from="384762167#8" to="384731375#0"/>
    <trip id="145" depart="145.00" from="-30263002#0" to="64401270#0"/>
    <trip id="146" depart="146.00" from="48273209#2" to="381097552#7"/>
    <trip id="147" depart="147.00" from="59566215#0" to="406701908#19"/>
    <trip id="148" depart="148.00" from="384762175#0" to="1056782163"/>
    <trip id="150" depart="150.00" from="65777805#7" to="406701908#18"/>
    <trip id="151" depart="151.00" from="64401414#17" to="420120092#0"/>
    <trip id="152" depart="152.00" from="30263010#1" to="30263010#11"/>
    <trip id="153" depart="153.00" from="384736603#2" to="65786237#6"/>
    <trip id="154" depart="154.00" from="60237267#9" to="65777805#14"/>
    <trip id="155" depart="155.00" from="65777805#5" to="30279769#16"/>
    <trip id="156" depart="156.00" from="30288334#0" to="30262982#5"/>
    <trip id="159" depart="159.00" from="30263010#11" to="734011347#1"/>
    <trip id="160" depart="160.00" from="65777805#0" to="734011350#9"/>
    <trip id="161" depart="161.00" from="64401270#1" to="65777805#9"/>
    <trip id="163" depart="163.00" from="384736604#0" to="734011347#1"/>
    <trip id="165" depart="165.00" from="64401270#1" to="381133554#0"/>
    <trip id="166" depart="166.00" from="60237267#7" to="30262982#6"/>
    <trip id="167" depart="167.00" from="65777805#1" to="65777805#14"/>
    <trip id="170" depart="170.00" from="60237267#9" to="30279769#7"/>
    <trip id="171" depart="171.00" from="1057741813#2" to="30279769#16"/>
    <trip id="173" depart="173.00" from="734011347#1" to="384731375#0"/>
    <trip id="174" depart="174.00" from="48273209#5" to="384737905#9"/>
    <trip id="176" depart="176.00" from="65786237#5" to="30263002#1"/>
    <trip id="177" depart="177.00" from="734011349#1" to="30279769#16"/>
    <trip id="178" depart="178.00" from="734011347#0" to="381133554#0"/>
    <trip id="181" depart="181.00" from="420120099#9" to="398276347#19"/>
    <trip id="182" depart="182.00" from="384737905#6" to="416159271"/>
    <trip id="183" depart="183.00" from="30288334#1" to="51780527#2"/>
    <trip id="184" depart="184.00" from="-1095760044" to="734011347#0"/>
    <trip id="185" depart="185.00" from="406701908#19" to="59566215#2"/>
    <trip id="188" depart="188.00" from="48553870#2" to="384736603#9"/>
    <trip id="189" depart="189.00" from="384736603#3" to="65777805#14"/>
    <trip id="191" depart="191.00" from="384736603#3" to="384762167#2"/>
    <trip id="193" depart="193.00" from="30262982#4" to="384762167#6"/>
    <trip id="196" depart="196.00" from="384736603#1" to="406701908#18"/>
    <trip id="197" depart="197.00" from="-1095760044" to="384731375#4"/>
    <trip id="199" depart="199.00" from="48553870#0" to="384766456#5"/>
    <trip id="201" depart="201.00" from="398276347#10" to="65786237#7"/>
    <trip id="202" depart="202.00" from="60237267#9" to="30279769#13"/>
    <trip id="204" depart="204.00" from="48273209#1" to="384736604#2"/>
    <trip id="205" depart="205.00" from="64401414#10" to="60237267#9"/>
    <trip id="206" depart="206.00" from="48553870#5" to="30279769#5"/>
    <trip id="207" depart="207.00" from="30279769#0" to="1159234896#1"/>
    <trip id="208" depart="208.00" from="30279769#7" to="390137512"/>
    <trip id="211" depart="211.00" from="30279769#0" to="51770227#1"/>
    <trip id="214" depart="214.00" from="59566215#2" to="64401270#0"/>
    <trip id="215" depart="215.00" from="292876837#2" to="384762167#8"/>
    <trip id="216" depart="216.00" from="30263010#6" to="734011350#2"/>
    <trip id="217" depart="217.00" from="398276347#3" to="231755974#0"/>
    <trip id="218" depart="218.00" from="30288334#0" to="65777805#14"/>
    <trip id="219" depart="219.00" from="384766456#1" to="64401414#18"/>
    <trip id="220" depart="220.00" from="48553870#3" to="734011350#9"/>
    <trip id="221" depart="221.00" from="420120099#6" to="734011349#4"/>
    <trip id="223" depart="223.00" from="59566215#0" to="398276347#19"/>
    <trip id="224" depart="224.00" from="64401414#16" to="406701908#18"/>
    <trip id="225" depart="225.00" from="65777805#4" to="60237267#7"/>
    <trip id="226" depart="226.00" from="398276347#11" to="381097552#7"/>
    <trip id="227" depart="227.00" from="30279769#8" to="420138110#5"/>
    <trip id="228" depart="228.00" from="60237267#0" to="398276347#20"/>
    <trip id="229" depart="229.00" from="48273209#0" to="381133559#6"/>
    <trip id="230" depart="230.00" from="231755974#1" to="384731375#4"/>
    <trip id="231" depart="231.00" from="381133554#0" to="384736603#5"/>
    <trip id="232" depart="232.00" from="406701908#19" to="30263010#2"/>
    <trip id="233" depart="233.00" from="30279769#2" to="48553870#9"/>
    <trip id="234" depart="234.00" from="51780527#1" to="292876836#0"/>
    <trip id="235" depart="235.00" from="384762167#3" to="406701908#17"/>
    <trip id="236" depart="236.00" from="384762167#6" to="30279769#16"/>
    <trip id="237" depart="237.00" from="384762167#7" to="65786237#8"/>
    <trip id="238" depart="238.00" from="420120099#2" to="48553870#9"/>
    <trip id="239" depart="239.00" from="65777805#0" to="637366830#2"/>
    <trip id="241" depart="241.00" from="384737905#1" to="637366830#0"/>
    <trip id="242" depart="242.00" from="65777805#0" to="734011349#4"/>
    <trip id="243" depart="243.00" from="384762167#7" to="60237267#8"/>
    <trip id="246" depart="246.00" from="384766442#1" to="1159234897"/>
    <trip id="248" depart="248.00" from="384762167#2" to="30279769#10"/>
    <trip id="249" depart="249.00" from="390137512" to="30263010#11"/>
    <trip id="250" depart="250.00" from="48273209#0" to="1159234897"/>
    <trip id="251" depart="251.00" from="384737905#9" to="406701908#21"/>
    <trip id="252" depart="252.00" from="1159234896#0" to="420138111#2"/>
    <trip id="253" depart="253.00" from="30263002#0" to="384766456#3"/>
    <trip id="254" depart="254.00" from="1283027704#0" to="384737905#4"/>
    <trip id="255" depart="255.00" from="30279769#1" to="384736603#8"/>
    <trip id="256" depart="256.00" from="60237267#0" to="384737905#4"/>
    <trip id="257" depart="257.00" from="59566215#2" to="65777805#12"/>
    <trip id="258" depart="258.00" from="30288334#1" to="292876837#3"/>
    <trip id="259" depart="259.00" from="1057741813#1" to="406701908#12"/>
    <trip id="260" depart="260.00" from="930035058#1" to="384737905#10"/>
    <trip id="261" depart="261.00" from="48553870#0" to="64401414#10"/>
    <trip id="262" depart="262.00" from="48553870#0" to="637366830#0"/>
    <trip id="263" depart="263.00" from="65786237#9" to="30279769#16"/>
    <trip id="264" depart="264.00" from="1057741813#1" to="30263010#8"/>
    <trip id="267" depart="267.00" from="51780527#0" to="643204393#1"/>
    <trip id="268" depart="268.00" from="30263010#3" to="420120099#14"/>
    <trip id="269" depart="269.00" from="59566215#1" to="30263002#1"/>
    <trip id="270" depart="270.00" from="64401414#10" to="734011350#5"/>
    <trip id="271" depart="271.00" from="292876837#2" to="1159234896#1"/>
    <trip id="274" depart="274.00" from="59566215#0" to="292876837#2"/>
    <trip id="276" depart="276.00" from="292876837#1" to="64401270#1"/>
    <trip id="277" depart="277.00" from="65777805#0" to="420120092#5"/>
    <trip id="278" depart="278.00" from="30262982#2" to="734011350#9"/>
    <trip id="279" depart="279.00" from="60237267#5" to="384737905#1"/>
    <trip id="280" depart="280.00" from="384762175#0" to="384737905#2"/>
    <trip id="282" depart="282.00" from="649339604" to="65777805#10"/>
    <trip id="283" depart="283.00" from="292876837#2" to="734011350#3"/>
    <trip id="284" depart="284.00" from="48273209#2" to="65777805#12"/>
    <trip id="286" depart="286.00" from="59566215#0" to="734011350#6"/>
    <trip id="288" depart="288.00" from="406701908#19" to="398276347#12"/>
    <trip id="290" depart="290.00" from="381097552#5" to="65777805#14"/>
    <trip id="291" depart="291.00" from="64401414#17" to="30262982#0"/>
    <trip id="293" depart="293.00" from="390137512" to="420120099#15"/>
    <trip id="294" depart="294.00" from="384737905#5" to="1159234897"/>
    <trip id="295" depart="295.00" from="65777805#0" to="30279769#16"/>
    <trip id="296" depart="296.00" from="30279769#10" to="64401414#18"/>
    <trip id="297" depart="297.00" from="384736604#4" to="65777805#9"/>
    <trip id="298" depart="298.00" from="51780527#0" to="384731375#0"/>
    <trip id="299" depart="299.00" from="-649339604" to="734011349#4"/>
    <trip id="300" depart="300.00" from="292876836#1" to="59566215#2"/>
    <trip id="302" depart="302.00" from="51770227#1" to="420138111#3"/>
    <trip id="304" depart="304.00" from="292876837#0" to="30279769#4"/>
    <trip id="306" depart="306.00" from="420120099#15" to="390137512"/>
    <trip id="307" depart="307.00" from="406701908#15" to="384762167#8"/>
    <trip id="308" depart="308.00" from="59566215#1" to="384736604#0"/>
    <trip id="309" depart="309.00" from="51780527#0" to="381133556#1"/>
    <trip id="310" depart="310.00" from="30288334#0" to="30263010#10"/>
    <trip id="311" depart="311.00" from="30279769#0" to="30263010#1"/>
    <trip id="312" depart="312.00" from="406701908#18" to="637366830#2"/>
    <trip id="313" depart="313.00" from="30279769#0" to="30279769#2"/>
    <trip id="315" depart="315.00" from="734011349#2" to="398276347#22"/>
    <trip id="316" depart="316.00" from="384731375#0" to="30262982#5"/>
    <trip id="317" depart="317.00" from="30279769#0" to="30279769#7"/>
    <trip id="318" depart="318.00" from="30263010#8" to="1057741813#1"/>
    <trip id="319" depart="319.00" from="406701908#18" to="381133559#6"/>
    <trip id="320" depart="320.00" from="734011349#2" to="406701908#20"/>
    <trip id="321" depart="321.00" from="51780527#0" to="30263010#11"/>
    <trip id="322" depart="322.00" from="65777805#0" to="398276347#15"/>
    <trip id="323" depart="323.00" from="65777805#1" to="416159268"/>
    <trip id="324" depart="324.00" from="398276347#1" to="384766442#5"/>
    <trip id="325" depart="325.00" from="30263010#9" to="231755974#0"/>
    <trip id="326" depart="326.00" from="65786237#6" to="398276347#10"/>
    <trip id="327" depart="327.00" from="64401414#11" to="384737905#9"/>
    <trip id="329" depart="329.00" from="1283027704#0" to="30263010#7"/>
    <trip id="331" depart="331.00" from="734011350#6" to="30263010#1"/>
    <trip id="332" depart="332.00" from="60237267#0" to="420120099#13"/>
    <trip id="333" depart="333.00" from="60237267#8" to="30279769#5"/>
    <trip id="334" depart="334.00" from="398276347#4" to="384766456#0"/>
    <trip id="335" depart="335.00" from="384766442#9" to="65777805#14"/>
    <trip id="337" depart="337.00" from="48273209#0" to="420120099#15"/>
    <trip id="338" depart="338.00" from="59566215#0" to="734011349#4"/>
    <trip id="339" depart="339.00" from="30279769#1" to="30279769#2"/>
    <trip id="342" depart="342.00" from="-30263002#0" to="384766456#0"/>
    <trip id="343" depart="343.00" from="420120099#6" to="384731375#5"/>
    <trip id="344" depart="344.00" from="30279769#2" to="51780527#2"/>
    <trip id="345" depart="345.00" from="51780527#0" to="384766456#0"/>
    <trip id="346" depart="346.00" from="51770227#1" to="734011347#0"/>
    <trip id="348" depart="348.00" from="48553870#1" to="734011349#1"/>
    <trip id="349" depart="349.00" from="384762175#0" to="406701908#18"/>
    <trip id="350" depart="350.00" from="48273209#9" to="65786237#9"/>
    <trip id="353" depart="353.00" from="59566215#1" to="406701908#8"/>
    <trip id="354" depart="354.00" from="384731375#3" to="30263010#11"/>
    <trip id="355" depart="355.00" from="51770227#1" to="51770227#1"/>
    <trip id="356" depart="356.00" from="65786237#6" to="398276347#17"/>
    <trip id="359" depart="359.00" from="384736603#6" to="381097552#4"/>
    <trip id="360" depart="360.00" from="292876837#0" to="734011350#3"/>
    <trip id="361" depart="361.00" from="64401414#3" to="416159271"/>
    <trip id="362" depart="362.00" from="65786237#9" to="930035058#1"/>
    <trip id="363" depart="363.00" from="48553870#5" to="381133556#0"/>
    <trip id="364" depart="364.00" from="1283027704#0" to="637366830#1"/>
    <trip id="366" depart="366.00" from="65786237#0" to="30279769#16"/>
    <trip id="367" depart="367.00" from="420120099#2" to="420120099#9"/>
    <trip id="369" depart="369.00" from="384737905#0" to="384736604#1"/>
    <trip id="370" depart="370.00" from="48553870#3" to="65777805#14"/>
    <trip id="371" depart="371.00" from="384736603#8" to="48553870#9"/>
    <trip id="372" depart="372.00" from="384731375#3" to="734011349#3"/>
    <trip id="373" depart="373.00" from="64401270#2" to="406701908#19"/>
    <trip id="375" depart="375.00" from="384736603#6" to="734011350#9"/>
    <trip id="377" depart="377.00" from="734011350#3" to="48273209#2"/>
    <trip id="379" depart="379.00" from="30279769#0" to="384737905#12"/>
    <trip id="381" depart="381.00" from="60237267#0" to="30279769#16"/>
    <trip id="382" depart="382.00" from="406701908#5" to="734011347#0"/>
    <trip id="383" depart="383.00" from="384766442#2" to="51770227#1"/>
    <trip id="384" depart="384.00" from="30262982#2" to="734011350#9"/>
    <trip id="385" depart="385.00" from="420138110#4" to="30288334#1"/>
    <trip id="386" depart="386.00" from="30263010#12" to="406701908#19"/>
    <trip id="387" depart="387.00" from="416159271" to="30262982#2"/>
    <trip id="388" depart="388.00" from="734011350#5" to="732305247#0"/>
    <trip id="389" depart="389.00" from="384766456#3" to="30263010#1"/>
    <trip id="390" depart="390.00" from="64401414#17" to="398276347#16"/>
    <trip id="391" depart="391.00" from="59566215#0" to="398276347#19"/>
    <trip id="392" depart="392.00" from="381133554#0" to="65777805#13"/>
    <trip id="394" depart="394.00" from="416159271" to="384737905#5"/>
    <trip id="395" depart="395.00" from="65786237#0" to="398276347#19"/>
    <trip id="397" depart="397.00" from="381133556#0" to="64401414#16"/>
    <trip id="398" depart="398.00" from="384762167#5" to="734011349#1"/>
    <trip id="399" depart="399.00" from="398276347#2" to="65777805#10"/>
    <trip id="401" depart="401.00" from="420120099#3" to="930035058#1"/>
    <trip id="403" depart="403.00" from="406701908#19" to="384737905#1"/>
    <trip id="404" depart="404.00" from="416159271" to="406701908#18"/>
    <trip id="405" depart="405.00" from="384766456#0" to="384736603#6"/>
    <trip id="406" depart="406.00" from="30279769#0" to="51770227#1"/>
    <trip id="407" depart="407.00" from="420120099#0" to="30288334#0"/>
    <trip id="409" depart="409.00" from="59566215#1" to="51780527#1"/>
    <trip id="410" depart="410.00" from="64401270#1" to="384737905#6"/>
    <trip id="411" depart="411.00" from="48553870#2" to="65777805#10"/>
    <trip id="413" depart="413.00" from="1272820758" to="398276347#18"/>
    <trip id="414" depart="414.00" from="420120099#4" to="65777805#5"/>
    <trip id="416" depart="416.00" from="398276347#7" to="384766456#1"/>
    <trip id="417" depart="417.00" from="59566215#0" to="384762167#2"/>
    <trip id="418" depart="418.00" from="48553870#0" to="30263010#9"/>
    <trip id="419" depart="419.00" from="398276347#1" to="734011350#9"/>
    <trip id="420" depart="420.00" from="384736604#3" to="48553870#8"/>
    <trip id="421" depart="421.00" from="48553870#0" to="65777805#14"/>
    <trip id="422" depart="422.00" from="65777805#0" to="65777805#14"/>
    <trip id="424" depart="424.00" from="59566215#0" to="637366830#1"/>
    <trip id="425" depart="425.00" from="65777805#1" to="1283027704#2"/>
    <trip id="427" depart="427.00" from="65786237#0" to="930035058#0"/>
    <trip id="429" depart="429.00" from="292876837#0" to="420120099#9"/>
    <trip id="430" depart="430.00" from="65777805#1" to="384766447#0"/>
    <trip id="431" depart="431.00" from="51770227#2" to="65786237#7"/>
    <trip id="432" depart="432.00" from="1283027704#0" to="64401414#17"/>
    <trip id="433" depart="433.00" from="384731375#4" to="384737905#3"/>
    <trip id="434" depart="434.00" from="30263010#1" to="398276347#3"/>
    <trip id="435" depart="435.00" from="420120092#2" to="64401414#16"/>
    <trip id="436" depart="436.00" from="30263010#5" to="292876837#2"/>
    <trip id="438" depart="438.00" from="30279769#5" to="732305247#0"/>
    <trip id="439" depart="439.00" from="30263010#0" to="384766456#3"/>
    <trip id="440" depart="440.00" from="30288334#1" to="381097552#6"/>
    <trip id="441" depart="441.00" from="-649339604" to="64401414#3"/>
    <trip id="443" depart="443.00" from="30263010#12" to="384766442#9"/>
    <trip id="444" depart="444.00" from="384736604#8" to="420120092#1"/>
    <trip id="445" depart="445.00" from="48273209#5" to="384762167#7"/>
    <trip id="446" depart="446.00" from="30288334#0" to="65777805#14"/>
    <trip id="447" depart="447.00" from="30279769#0" to="384737905#6"/>
    <trip id="449" depart="449.00" from="420120099#0" to="416159271"/>
    <trip id="451" depart="451.00" from="734011349#2" to="48273209#2"/>
    <trip id="452" depart="452.00" from="381133554#0" to="406701908#21"/>
    <trip id="453" depart="453.00" from="51770227#0" to="60237267#8"/>
    <trip id="454" depart="454.00" from="1283027704#0" to="420120099#14"/>
    <trip id="456" depart="456.00" from="384731375#0" to="64401414#18"/>
    <trip id="457" depart="457.00" from="420138110#0" to="384737905#10"/>
    <trip id="460" depart="460.00" from="48553870#1" to="65777805#13"/>
    <trip id="461" depart="461.00" from="48273209#0" to="65786237#7"/>
    <trip id="463" depart="463.00" from="384766442#3" to="420120091"/>
    <trip id="464" depart="464.00" from="59566215#0" to="30262982#2"/>
    <trip id="465" depart="465.00" from="384736603#1" to="60237267#8"/>
    <trip id="466" depart="466.00" from="30263010#6" to="30263010#12"/>
    <trip id="467" depart="467.00" from="406701908#19" to="734011350#9"/>
    <trip id="468" depart="468.00" from="406701908#15" to="732305247#0"/>
    <trip id="469" depart="469.00" from="64401414#16" to="381097552#7"/>
    <trip id="470" depart="470.00" from="64401414#12" to="398276347#10"/>
    <trip id="471" depart="471.00" from="643204393#1" to="60237267#8"/>
    <trip id="472" depart="472.00" from="384736604#3" to="30263002#1"/>
    <trip id="473" depart="473.00" from="734011347#0" to="30263010#4"/>
    <trip id="474" depart="474.00" from="734011347#1" to="65777805#14"/>
    <trip id="475" depart="475.00" from="59566215#0" to="734011350#9"/>
    <trip id="476" depart="476.00" from="734011347#1" to="64401414#3"/>
    <trip id="477" depart="477.00" from="384737905#2" to="64401414#16"/>
    <trip id="478" depart="478.00" from="1057741813#0" to="398276347#7"/>
    <trip id="480" depart="480.00" from="48553870#5" to="420120092#0"/>
    <trip id="481" depart="481.00" from="64401414#11" to="734011349#2"/>
    <trip id="482" depart="482.00" from="292876837#2" to="30288334#0"/>
    <trip id="484" depart="484.00" from="420120092#0" to="732305247#1"/>
    <trip id="485" depart="485.00" from="30279769#13" to="231755974#2"/>
    <trip id="486" depart="486.00" from="64401414#12" to="65786237#9"/>
    <trip id="487" depart="487.00" from="384736603#1" to="384762167#2"/>
    <trip id="488" depart="488.00" from="30263010#0" to="734011349#4"/>
    <trip id="489" depart="489.00" from="384736603#2" to="398276347#15"/>
    <trip id="490" depart="490.00" from="292876837#0" to="65786237#2"/>
    <trip id="491" depart="491.00" from="30263002#0" to="384766456#0"/>
    <trip id="492" depart="492.00" from="48553870#3" to="60237267#7"/>
    <trip id="493" depart="493.00" from="65786237#8" to="384762167#6"/>
    <trip id="494" depart="494.00" from="59566215#0" to="30263010#9"/>
    <trip id="495" depart="495.00" from="384762167#5" to="30262982#4"/>
    <trip id="497" depart="497.00" from="65786237#9" to="1208137071#1"/>
    <trip id="498" depart="498.00" from="384737905#3" to="384766447#0"/>
    <trip id="499" depart="499.00" from="65786237#9" to="65777805#14"/>
    <trip id="500" depart="500.00" from="292876837#0" to="48553870#5"/>
    <trip id="503" depart="503.00" from="30279769#0" to="30263010#10"/>
    <trip id="504" depart="504.00" from="64401414#8" to="384766456#0"/>
    <trip id="505" depart="505.00" from="48553870#2" to="420138111#2"/>
    <trip id="506" depart="506.00" from="420120099#7" to="1159234896#0"/>
    <trip id="507" depart="507.00" from="60237267#7" to="381097552#2"/>
    <trip id="508" depart="508.00" from="30262982#3" to="406701908#21"/>
    <trip id="509" depart="509.00" from="231755972#1" to="637366830#2"/>
    <trip id="510" depart="510.00" from="30279769#1" to="30279769#2"/>
    <trip id="511" depart="511.00" from="65777805#0" to="384736603#8"/>
    <trip id="512" depart="512.00" from="30263010#1" to="65786237#6"/>
    <trip id="513" depart="513.00" from="-30263002#0" to="65777805#14"/>
    <trip id="514" depart="514.00" from="30263010#1" to="30263010#12"/>
    <trip id="515" depart="515.00" from="30288334#0" to="30279769#14"/>
    <trip id="516" depart="516.00" from="48553870#1" to="1159234896#1"/>
    <trip id="517" depart="517.00" from="1057741813#0" to="64401414#16"/>
    <trip id="518" depart="518.00" from="30279769#4" to="384736603#7"/>
    <trip id="519" depart="519.00" from="30263010#6" to="231755974#0"/>
    <trip id="520" depart="520.00" from="59566215#0" to="398276347#22"/>
    <trip id="522" depart="522.00" from="60237267#4" to="398276347#19"/>